data/nesta/nesta_case300_ieee__api.m
%%%%%%%%%%%%%%%%%%%%%%%%%%%%%%%%%%%%%%%%%%%%%%%%%%%%%%%%%%%%%%%%%%%%%%%%%%%
%%%%                                                                  %%%%%
%%%%      NICTA Energy System Test Case Archive (NESTA) - v0.1.5      %%%%%
%%%%            Optimal Power Flow - Active Power Increase            %%%%%
%%%%                       30 - October - 2014                        %%%%%
%%%%                                                                  %%%%%
%%%%%%%%%%%%%%%%%%%%%%%%%%%%%%%%%%%%%%%%%%%%%%%%%%%%%%%%%%%%%%%%%%%%%%%%%%%
function mpc = nesta_case300_ieee__api
mpc.version = '2';
mpc.baseMVA = 100.0;

%% bus data
%	bus_i	type	Pd	Qd	Gs	Bs	area	Vm	Va	baseKV	zone	Vmax	Vmin
mpc.bus = [
	1	 1	 101.65	 49.00	 0.0	 0.0	 1	     1.0284	     5.9500	 115.0	 1	     1.0600	     0.9400;
	2	 1	 63.25	 15.00	 0.0	 0.0	 1	     1.0354	     7.7400	 115.0	 1	     1.0600	     0.9400;
	3	 1	 20.00	 0.00	 0.0	 0.0	 1	     0.9971	     6.6400	 230.0	 1	     1.0600	     0.9400;
	4	 1	 0.00	 0.00	 0.0	 0.0	 1	     1.0308	     4.7100	 345.0	 1	     1.0600	     0.9400;
	5	 1	 398.70	 130.00	 0.0	 0.0	 1	     1.0191	     4.6800	 115.0	 1	     1.0600	     0.9400;
	6	 1	 135.53	 41.00	 0.0	 0.0	 1	     1.0312	     6.9900	 115.0	 1	     1.0600	     0.9400;
	7	 1	 0.00	 0.00	 0.0	 0.0	 1	     0.9934	     6.1900	 230.0	 1	     1.0600	     0.9400;
	8	 2	 71.16	 14.00	 0.0	 0.0	 1	     1.0153	     2.4000	 115.0	 1	     1.0600	     0.9400;
	9	 1	 108.43	 43.00	 0.0	 0.0	 1	     1.0034	     2.8500	 115.0	 1	     1.0600	     0.9400;
	10	 2	 172.81	 33.00	 0.0	 0.0	 1	     1.0205	     1.3500	 230.0	 1	     1.0600	     0.9400;
	11	 1	 93.74	 21.00	 0.0	 0.0	 1	     1.0057	     2.4600	 115.0	 1	     1.0600	     0.9400;
	12	 1	 0.00	 0.00	 0.0	 0.0	 1	     0.9974	     5.2100	 230.0	 1	     1.0600	     0.9400;
	13	 1	 65.51	 10.00	 0.0	 0.0	 1	     0.9977	    -0.5500	 115.0	 1	     1.0600	     0.9400;
	14	 1	 180.71	 60.00	 0.0	 0.0	 1	     0.9991	    -4.8100	 115.0	 1	     1.0600	     0.9400;
	15	 1	 143.10	 23.00	 0.0	 0.0	 1	     1.0343	    -8.5900	 115.0	 1	     1.0600	     0.9400;
	16	 1	 0.00	 0.00	 0.0	 0.0	 1	     1.0315	    -2.6500	 345.0	 1	     1.0600	     0.9400;
	17	 1	 633.62	 220.00	 0.0	 0.0	 1	     1.0649	   -13.1000	 115.0	 1	     1.0600	     0.9400;
	19	 1	 0.00	 0.00	 0.0	 0.0	 1	     0.9820	     1.0800	 230.0	 1	     1.0600	     0.9400;
	20	 2	 683.32	 120.00	 0.0	 0.0	 1	     1.0010	    -2.4600	 115.0	 1	     1.0600	     0.9400;
	21	 1	 86.97	 1.00	 0.0	 0.0	 1	     0.9752	     1.6200	 230.0	 1	     1.0600	     0.9400;
	22	 1	 91.49	 23.00	 0.0	 0.0	 1	     0.9963	    -1.9700	 115.0	 1	     1.0600	     0.9400;
	23	 1	 23.72	 7.00	 0.0	 0.0	 1	     1.0501	     3.9400	 115.0	 1	     1.0600	     0.9400;
	24	 1	 0.00	 0.00	 0.0	 0.0	 1	     1.0057	     6.0200	 230.0	 1	     1.0600	     0.9400;
	25	 1	 50.83	 12.00	 0.0	 0.0	 1	     1.0234	     1.4400	 115.0	 1	     1.0600	     0.9400;
	26	 1	 31.62	 9.00	 0.0	 0.0	 1	     0.9986	    -1.7300	 115.0	 1	     1.0600	     0.9400;
	27	 1	 77.93	 13.00	 0.0	 0.0	 1	     0.9750	    -4.9000	 115.0	 1	     1.0600	     0.9400;
	33	 1	 62.12	 6.00	 0.0	 0.0	 1	     1.0244	   -12.0200	 115.0	 1	     1.0600	     0.9400;
	34	 1	 0.00	 0.00	 0.0	 0.0	 1	     1.0414	    -7.9400	 345.0	 1	     1.0600	     0.9400;
	35	 1	 0.00	 0.00	 0.0	 0.0	 1	     0.9757	   -25.7200	 115.0	 1	     1.0600	     0.9400;
	36	 1	 0.00	 0.00	 0.0	 0.0	 1	     1.0011	   -22.5900	 230.0	 1	     1.0600	     0.9400;
	37	 1	 96.00	 32.00	 0.0	 0.0	 1	     1.0201	   -11.2300	 115.0	 1	     1.0600	     0.9400;
	38	 1	 175.06	 18.00	 0.0	 0.0	 1	     1.0202	   -12.5600	 115.0	 1	     1.0600	     0.9400;
	39	 1	 0.00	 0.00	 0.0	 0.0	 1	     1.0535	    -5.8100	 345.0	 1	     1.0600	     0.9400;
	40	 1	 46.00	 -21.00	 0.0	 0.0	 1	     1.0216	   -12.7800	 115.0	 1	     1.0600	     0.9400;
	41	 1	 86.00	 0.00	 0.0	 0.0	 1	     1.0292	   -10.4500	 115.0	 1	     1.0600	     0.9400;
	42	 1	 0.00	 0.00	 0.0	 0.0	 1	     1.0448	    -7.4400	 345.0	 1	     1.0600	     0.9400;
	43	 1	 44.05	 9.00	 0.0	 0.0	 1	     1.0006	   -16.7900	 115.0	 1	     1.0600	     0.9400;
	44	 1	 220.24	 29.00	 0.0	 0.0	 1	     1.0086	   -17.4700	 115.0	 1	     1.0600	     0.9400;
	45	 1	 0.00	 0.00	 0.0	 0.0	 1	     1.0215	   -14.7400	 230.0	 1	     1.0600	     0.9400;
	46	 1	 0.00	 0.00	 0.0	 0.0	 1	     1.0344	   -11.7500	 345.0	 1	     1.0600	     0.9400;
	47	 1	 65.51	 11.80	 0.0	 0.0	 1	     0.9777	   -23.1700	 115.0	 1	     1.0600	     0.9400;
	48	 1	 46.31	 19.00	 0.0	 0.0	 1	     1.0019	   -16.0900	 115.0	 1	     1.0600	     0.9400;
	49	 1	 103.91	 26.00	 0.0	 0.0	 1	     1.0475	    -2.9500	 115.0	 1	     1.0600	     0.9400;
	51	 1	 -5.00	 5.00	 0.0	 0.0	 1	     1.0253	    -8.1500	 115.0	 1	     1.0600	     0.9400;
	52	 1	 68.90	 28.00	 0.0	 0.0	 1	     0.9979	   -11.8600	 115.0	 1	     1.0600	     0.9400;
	53	 1	 77.93	 3.00	 0.0	 0.0	 1	     0.9959	   -17.6000	 115.0	 1	     1.0600	     0.9400;
	54	 1	 11.29	 1.00	 0.0	 0.0	 1	     1.0050	   -16.2500	 115.0	 1	     1.0600	     0.9400;
	55	 1	 24.85	 10.00	 0.0	 0.0	 1	     1.0150	   -12.2100	 115.0	 1	     1.0600	     0.9400;
	57	 1	 110.69	 20.00	 0.0	 0.0	 1	     1.0335	    -8.0000	 115.0	 1	     1.0600	     0.9400;
	58	 1	 15.81	 1.00	 0.0	 0.0	 1	     0.9918	    -5.9900	 115.0	 1	     1.0600	     0.9400;
	59	 1	 246.22	 106.00	 0.0	 0.0	 1	     0.9789	    -5.2900	 115.0	 1	     1.0600	     0.9400;
	60	 1	 0.00	 0.00	 0.0	 0.0	 1	     1.0246	    -9.5600	 230.0	 1	     1.0600	     0.9400;
	61	 1	 256.38	 110.00	 0.0	 0.0	 1	     0.9906	    -3.4700	 115.0	 1	     1.0600	     0.9400;
	62	 1	 0.00	 0.00	 0.0	 0.0	 1	     1.0160	    -1.1000	 230.0	 1	     1.0600	     0.9400;
	63	 2	 79.06	 30.00	 0.0	 0.0	 1	     0.9583	   -17.6200	 115.0	 1	     1.0600	     0.9400;
	64	 1	 0.00	 0.00	 0.0	 0.0	 1	     0.9480	   -12.9700	 230.0	 1	     1.0600	     0.9400;
	69	 1	 0.00	 0.00	 0.0	 0.0	 1	     0.9630	   -25.6600	 115.0	 1	     1.0600	     0.9400;
	70	 1	 63.25	 20.00	 0.0	 0.0	 1	     0.9513	   -35.1600	 115.0	 1	     1.0600	     0.9400;
	71	 1	 131.02	 38.00	 0.0	 0.0	 1	     0.9793	   -29.8800	 115.0	 1	     1.0600	     0.9400;
	72	 1	 64.38	 19.00	 0.0	 0.0	 1	     0.9696	   -27.4800	 115.0	 1	     1.0600	     0.9400;
	73	 1	 253.00	 71.00	 0.0	 0.0	 1	     0.9775	   -25.7700	 115.0	 1	     1.0600	     0.9400;
	74	 1	 0.00	 0.00	 0.0	 0.0	 1	     0.9964	   -22.0000	 230.0	 1	     1.0600	     0.9400;
	76	 2	 234.93	 107.00	 0.0	 0.0	 1	     0.9632	   -26.5400	 115.0	 1	     1.0600	     0.9400;
	77	 1	 83.58	 28.00	 0.0	 0.0	 1	     0.9837	   -24.9400	 115.0	 1	     1.0600	     0.9400;
	78	 1	 0.00	 0.00	 0.0	 0.0	 1	     0.9900	   -24.0500	 115.0	 1	     1.0600	     0.9400;
	79	 1	 54.21	 14.00	 0.0	 0.0	 1	     0.9820	   -24.9700	 115.0	 1	     1.0600	     0.9400;
	80	 1	 31.62	 7.00	 0.0	 0.0	 1	     0.9872	   -24.9700	 115.0	 1	     1.0600	     0.9400;
	81	 1	 0.00	 0.00	 0.0	 0.0	 1	     1.0340	   -18.8900	 345.0	 1	     1.0600	     0.9400;
	84	 2	 41.79	 13.00	 0.0	 0.0	 1	     1.0250	   -17.1600	 115.0	 1	     1.0600	     0.9400;
	85	 1	 0.00	 0.00	 0.0	 0.0	 1	     0.9872	   -17.6800	 230.0	 1	     1.0600	     0.9400;
	86	 1	 0.00	 0.00	 0.0	 0.0	 1	     0.9909	   -14.1900	 230.0	 1	     1.0600	     0.9400;
	87	 1	 0.00	 0.00	 0.0	 0.0	 1	     0.9921	    -7.7700	 230.0	 1	     1.0600	     0.9400;
	88	 1	 0.00	 0.00	 0.0	 0.0	 1	     1.0151	   -20.9600	 230.0	 1	     1.0600	     0.9400;
	89	 1	 44.20	 0.00	 0.0	 0.0	 1	     1.0317	   -11.1300	 115.0	 1	     1.0600	     0.9400;
	90	 1	 66.00	 0.00	 0.0	 0.0	 1	     1.0272	   -11.2300	 115.0	 1	     1.0600	     0.9400;
	91	 2	 17.40	 0.00	 0.0	 0.0	 1	     1.0520	    -9.4000	 115.0	 1	     1.0600	     0.9400;
	92	 2	 15.80	 0.00	 0.0	 0.0	 1	     1.0520	    -6.2000	 115.0	 1	     1.0600	     0.9400;
	94	 1	 60.30	 0.00	 0.0	 0.0	 1	     0.9930	    -9.4200	 115.0	 1	     1.0600	     0.9400;
	97	 1	 39.90	 0.00	 0.0	 0.0	 1	     1.0183	   -13.2400	 115.0	 1	     1.0600	     0.9400;
	98	 2	 66.70	 0.00	 0.0	 0.0	 1	     1.0000	   -14.6000	 115.0	 1	     1.0600	     0.9400;
	99	 1	 83.50	 0.00	 0.0	 0.0	 1	     0.9894	   -20.2700	 115.0	 1	     1.0600	     0.9400;
	100	 1	 0.00	 0.00	 0.0	 0.0	 1	     1.0060	   -14.4500	 115.0	 1	     1.0600	     0.9400;
	102	 1	 77.80	 0.00	 0.0	 0.0	 1	     1.0008	   -15.2300	 115.0	 1	     1.0600	     0.9400;
	103	 1	 32.00	 0.00	 0.0	 0.0	 1	     1.0288	   -12.0600	 115.0	 1	     1.0600	     0.9400;
	104	 1	 8.60	 0.00	 0.0	 0.0	 1	     0.9958	   -17.3300	 115.0	 1	     1.0600	     0.9400;
	105	 1	 49.60	 0.00	 0.0	 0.0	 1	     1.0223	   -12.9400	 115.0	 1	     1.0600	     0.9400;
	107	 1	 4.60	 0.00	 0.0	 0.0	 1	     1.0095	   -16.0300	 115.0	 1	     1.0600	     0.9400;
	108	 2	 112.10	 0.00	 0.0	 0.0	 1	     0.9900	   -20.2600	 115.0	 1	     1.0600	     0.9400;
	109	 1	 30.70	 0.00	 0.0	 0.0	 1	     0.9749	   -26.0600	 115.0	 1	     1.0600	     0.9400;
	110	 1	 63.00	 0.00	 0.0	 0.0	 1	     0.9730	   -24.7200	 115.0	 1	     1.0600	     0.9400;
	112	 1	 19.60	 0.00	 0.0	 0.0	 1	     0.9725	   -28.6900	 115.0	 1	     1.0600	     0.9400;
	113	 1	 26.20	 0.00	 0.0	 0.0	 1	     0.9700	   -25.3800	 115.0	 1	     1.0600	     0.9400;
	114	 1	 18.20	 0.00	 0.0	 0.0	 1	     0.9747	   -28.5900	 115.0	 1	     1.0600	     0.9400;
	115	 1	 0.00	 0.00	 0.0	 0.0	 1	     0.9603	   -13.5700	 115.0	 2	     1.0600	     0.9400;
	116	 1	 0.00	 0.00	 0.0	 0.0	 1	     1.0249	   -12.6900	 115.0	 2	     1.0600	     0.9400;
	117	 1	 0.00	 0.00	 0.0	 325.0	 1	     0.9348	    -4.7200	 115.0	 2	     1.0600	     0.9400;
	118	 1	 15.93	 650.00	 0.0	 0.0	 1	     0.9298	    -4.1200	 115.0	 2	     1.0600	     0.9400;
	119	 2	 0.00	 0.00	 0.0	 0.0	 1	     1.0435	     5.1700	 115.0	 2	     1.0600	     0.9400;
	120	 1	 877.58	 215.00	 0.0	 55.0	 1	     0.9584	    -8.7700	 115.0	 2	     1.0600	     0.9400;
	121	 1	 604.26	 55.00	 0.0	 0.0	 1	     0.9871	   -12.6400	 115.0	 2	     1.0600	     0.9400;
	122	 1	 258.76	 11.80	 0.0	 0.0	 1	     0.9728	   -14.3600	 115.0	 2	     1.0600	     0.9400;
	123	 1	 88.10	 1.40	 0.0	 0.0	 1	     1.0006	   -17.6400	 115.0	 2	     1.0600	     0.9400;
	124	 2	 312.18	 59.30	 0.0	 0.0	 1	     1.0233	   -13.4900	 115.0	 2	     1.0600	     0.9400;
	125	 2	 581.44	 82.70	 0.0	 0.0	 1	     1.0103	   -18.4300	 115.0	 2	     1.0600	     0.9400;
	126	 1	 65.40	 5.10	 0.0	 0.0	 1	     0.9978	   -12.8600	 115.0	 2	     1.0600	     0.9400;
	127	 1	 430.09	 37.00	 0.0	 0.0	 1	     1.0001	   -10.5200	 230.0	 2	     1.0600	     0.9400;
	128	 1	 0.00	 0.00	 0.0	 0.0	 1	     1.0024	    -4.7800	 230.0	 2	     1.0600	     0.9400;
	129	 1	 0.00	 0.00	 0.0	 0.0	 1	     1.0028	    -4.4000	 230.0	 2	     1.0600	     0.9400;
	130	 1	 0.00	 0.00	 0.0	 0.0	 1	     1.0191	     5.5600	 230.0	 2	     1.0600	     0.9400;
	131	 1	 0.00	 0.00	 0.0	 0.0	 1	     0.9861	     6.0600	 230.0	 2	     1.0600	     0.9400;
	132	 1	 0.00	 0.00	 0.0	 0.0	 1	     1.0045	     3.0400	 230.0	 2	     1.0600	     0.9400;
	133	 1	 0.00	 0.00	 0.0	 0.0	 1	     1.0020	    -5.4600	 230.0	 2	     1.0600	     0.9400;
	134	 1	 0.00	 0.00	 0.0	 0.0	 1	     1.0220	    -8.0400	 230.0	 2	     1.0600	     0.9400;
	135	 1	 191.10	 41.60	 0.0	 0.0	 1	     1.0193	    -6.7600	 230.0	 2	     1.0600	     0.9400;
	136	 1	 62.35	 18.20	 0.0	 0.0	 1	     1.0476	     1.5400	 230.0	 2	     1.0600	     0.9400;
	137	 1	 309.02	 99.80	 0.0	 0.0	 1	     1.0471	    -1.4500	 230.0	 2	     1.0600	     0.9400;
	138	 2	 1151.13	 135.20	 0.0	 0.0	 1	     1.0550	    -6.3500	 230.0	 2	     1.0600	     0.9400;
	139	 1	 672.02	 83.30	 0.0	 0.0	 1	     1.0117	    -3.5700	 115.0	 2	     1.0600	     0.9400;
	140	 1	 437.89	 114.70	 0.0	 0.0	 1	     1.0430	    -3.4400	 230.0	 2	     1.0600	     0.9400;
	141	 2	 163.77	 58.00	 0.0	 0.0	 1	     1.0510	     0.0500	 230.0	 2	     1.0600	     0.9400;
	142	 1	 63.81	 24.50	 0.0	 0.0	 1	     1.0155	    -2.7700	 230.0	 2	     1.0600	     0.9400;
	143	 2	 101.09	 35.50	 0.0	 0.0	 1	     1.0435	     4.0300	 230.0	 2	     1.0600	     0.9400;
	144	 1	 0.00	 0.00	 0.0	 0.0	 1	     1.0160	    -0.7000	 230.0	 2	     1.0600	     0.9400;
	145	 1	 27.11	 14.00	 0.0	 0.0	 1	     1.0081	    -0.1600	 230.0	 2	     1.0600	     0.9400;
	146	 2	 0.00	 0.00	 0.0	 0.0	 1	     1.0528	     4.3200	 230.0	 2	     1.0600	     0.9400;
	147	 2	 0.00	 0.00	 0.0	 0.0	 1	     1.0528	     8.3600	 230.0	 2	     1.0600	     0.9400;
	148	 1	 71.16	 25.00	 0.0	 0.0	 1	     1.0577	     0.2800	 230.0	 2	     1.0600	     0.9400;
	149	 2	 0.00	 0.00	 0.0	 0.0	 1	     1.0735	     5.2300	 230.0	 2	     1.0600	     0.9400;
	150	 1	 0.00	 0.00	 0.0	 0.0	 1	     0.9869	     6.3400	 230.0	 2	     1.0600	     0.9400;
	151	 1	 0.00	 0.00	 0.0	 0.0	 1	     1.0048	     4.1300	 230.0	 2	     1.0600	     0.9400;
	152	 2	 19.20	 9.00	 0.0	 0.0	 1	     1.0535	     9.2400	 230.0	 2	     1.0600	     0.9400;
	153	 2	 0.00	 0.00	 0.0	 0.0	 1	     1.0435	    10.4600	 230.0	 2	     1.0600	     0.9400;
	154	 1	 79.06	 5.00	 0.0	 34.5	 1	     0.9663	    -1.8000	 115.0	 2	     1.0600	     0.9400;
	155	 1	 225.89	 50.00	 0.0	 0.0	 1	     1.0177	     6.7500	 230.0	 2	     1.0600	     0.9400;
	156	 2	 84.71	 50.00	 0.0	 0.0	 1	     0.9630	     5.1500	 115.0	 2	     1.0600	     0.9400;
	157	 1	 123.50	 -24.30	 0.0	 0.0	 1	     0.9845	   -11.9300	 230.0	 2	     1.0600	     0.9400;
	158	 1	 0.00	 0.00	 0.0	 0.0	 1	     0.9987	   -11.4000	 230.0	 2	     1.0600	     0.9400;
	159	 1	 37.27	 16.50	 0.0	 0.0	 1	     0.9867	    -9.8200	 230.0	 2	     1.0600	     0.9400;
	160	 1	 0.00	 0.00	 0.0	 0.0	 1	     0.9998	   -12.5500	 230.0	 2	     1.0600	     0.9400;
	161	 1	 39.53	 15.00	 0.0	 0.0	 1	     1.0360	     8.8500	 230.0	 2	     1.0600	     0.9400;
	162	 1	 96.00	 24.00	 0.0	 0.0	 1	     0.9918	    18.5000	 230.0	 2	     1.0600	     0.9400;
	163	 1	 0.00	 0.40	 0.0	 0.0	 1	     1.0410	     2.9100	 230.0	 2	     1.0600	     0.9400;
	164	 1	 0.00	 0.00	 0.0	 -212.0	 1	     0.9839	     9.6600	 230.0	 2	     1.0600	     0.9400;
	165	 1	 0.00	 0.00	 0.0	 0.0	 1	     1.0002	    26.3100	 230.0	 2	     1.0600	     0.9400;
	166	 1	 0.00	 0.00	 0.0	 -103.0	 1	     0.9973	    30.2200	 230.0	 2	     1.0600	     0.9400;
	167	 1	 338.72	 95.70	 0.0	 0.0	 1	     0.9715	    -6.9100	 230.0	 2	     1.0600	     0.9400;
	168	 1	 0.00	 0.00	 0.0	 0.0	 1	     1.0024	    -4.8000	 230.0	 2	     1.0600	     0.9400;
	169	 1	 0.00	 0.00	 0.0	 0.0	 1	     0.9879	    -6.6800	 230.0	 2	     1.0600	     0.9400;
	170	 2	 544.17	 205.00	 0.0	 0.0	 1	     0.9290	     0.0900	 115.0	 2	     1.0600	     0.9400;
	171	 2	 862.45	 291.10	 0.0	 0.0	 1	     0.9829	    -9.9400	 115.0	 2	     1.0600	     0.9400;
	172	 1	 26.50	 0.00	 0.0	 0.0	 1	     1.0244	    -6.2200	 115.0	 2	     1.0600	     0.9400;
	173	 1	 184.66	 43.00	 0.0	 53.0	 1	     0.9837	   -12.7500	 115.0	 2	     1.0600	     0.9400;
	174	 1	 0.00	 0.00	 0.0	 0.0	 1	     1.0622	    -2.6900	 115.0	 2	     1.0600	     0.9400;
	175	 1	 198.78	 83.00	 0.0	 0.0	 1	     0.9730	    -7.2100	 115.0	 2	     1.0600	     0.9400;
	176	 2	 5.65	 4.00	 0.0	 0.0	 1	     1.0522	     4.6700	 115.0	 2	     1.0600	     0.9400;
	177	 2	 31.62	 12.00	 0.0	 0.0	 1	     1.0077	     0.6200	 115.0	 2	     1.0600	     0.9400;
	178	 1	 482.73	 173.60	 0.0	 0.0	 1	     0.9397	    -6.5600	 115.0	 2	     1.0600	     0.9400;
	179	 1	 83.58	 29.00	 0.0	 45.0	 1	     0.9699	    -9.3700	 115.0	 2	     1.0600	     0.9400;
	180	 1	 78.50	 49.30	 0.0	 0.0	 1	     0.9793	    -3.0900	 115.0	 2	     1.0600	     0.9400;
	181	 1	 73.40	 0.00	 0.0	 0.0	 1	     1.0518	    -1.3300	 230.0	 2	     1.0600	     0.9400;
	182	 1	 271.86	 89.00	 0.0	 0.0	 1	     1.0447	    -4.1900	 230.0	 2	     1.0600	     0.9400;
	183	 1	 45.18	 4.00	 0.0	 0.0	 1	     0.9717	     7.1200	 115.0	 2	     1.0600	     0.9400;
	184	 1	 154.51	 16.60	 0.0	 0.0	 1	     1.0386	    -6.8500	 230.0	 2	     1.0600	     0.9400;
	185	 2	 0.00	 0.00	 0.0	 0.0	 1	     1.0522	    -4.3300	 230.0	 2	     1.0600	     0.9400;
	186	 2	 67.54	 24.30	 0.0	 0.0	 1	     1.0650	     2.1700	 230.0	 2	     1.0600	     0.9400;
	187	 2	 67.54	 24.30	 0.0	 0.0	 1	     1.0650	     1.4000	 230.0	 2	     1.0600	     0.9400;
	188	 1	 206.24	 43.60	 0.0	 0.0	 1	     1.0533	    -0.7200	 230.0	 2	     1.0600	     0.9400;
	189	 1	 7.91	 2.00	 0.0	 0.0	 1	     0.9975	   -25.8400	 66.0	 3	     1.0600	     0.9400;
	190	 2	 0.00	 0.00	 0.0	 -150.0	 1	     1.0551	   -20.6200	 345.0	 3	     1.0600	     0.9400;
	191	 2	 552.30	 53.00	 0.0	 0.0	 1	     1.0435	    12.2500	 230.0	 3	     1.0600	     0.9400;
	192	 1	 903.56	 72.00	 0.0	 0.0	 1	     0.9374	   -11.1800	 230.0	 3	     1.0600	     0.9400;
	193	 1	 0.00	 0.00	 0.0	 0.0	 1	     0.9897	   -26.0900	 66.0	 3	     1.0600	     0.9400;
	194	 1	 0.00	 0.00	 0.0	 0.0	 1	     1.0489	   -19.2100	 345.0	 3	     1.0600	     0.9400;
	195	 1	 0.00	 0.00	 0.0	 0.0	 1	     1.0357	   -20.7900	 345.0	 3	     1.0600	     0.9400;
	196	 1	 11.29	 3.00	 0.0	 0.0	 1	     0.9695	   -25.3200	 115.0	 3	     1.0600	     0.9400;
	197	 1	 48.57	 14.00	 0.0	 0.0	 1	     0.9907	   -23.7200	 115.0	 3	     1.0600	     0.9400;
	198	 2	 72.28	 21.00	 0.0	 0.0	 1	     1.0150	   -20.5800	 115.0	 3	     1.0600	     0.9400;
	199	 1	 39.53	 12.00	 0.0	 0.0	 1	     0.9528	   -26.0500	 115.0	 3	     1.0600	     0.9400;
	200	 1	 30.50	 12.00	 0.0	 0.0	 1	     0.9550	   -25.9300	 115.0	 3	     1.0600	     0.9400;
	201	 1	 46.31	 14.00	 0.0	 0.0	 1	     0.9692	   -27.4900	 66.0	 1	     1.0600	     0.9400;
	202	 1	 42.92	 13.00	 0.0	 0.0	 1	     0.9908	   -25.3300	 66.0	 3	     1.0600	     0.9400;
	203	 1	 47.44	 14.00	 0.0	 0.0	 1	     1.0033	   -22.3500	 115.0	 3	     1.0600	     0.9400;
	204	 1	 81.32	 24.00	 0.0	 0.0	 1	     0.9718	   -25.7000	 66.0	 3	     1.0600	     0.9400;
	205	 1	 0.00	 -5.00	 0.0	 0.0	 1	     0.9838	   -26.0700	 66.0	 3	     1.0600	     0.9400;
	206	 1	 13.55	 2.00	 0.0	 0.0	 1	     0.9992	   -27.4100	 66.0	 3	     1.0600	     0.9400;
	207	 1	 -21.00	 -14.20	 0.0	 0.0	 1	     1.0137	   -27.4400	 66.0	 1	     1.0600	     0.9400;
	208	 1	 7.91	 2.00	 0.0	 0.0	 1	     0.9929	   -26.2800	 66.0	 3	     1.0600	     0.9400;
	209	 1	 42.92	 13.00	 0.0	 0.0	 1	     0.9999	   -25.6600	 66.0	 3	     1.0600	     0.9400;
	210	 1	 0.00	 0.00	 0.0	 0.0	 1	     0.9788	   -24.2200	 115.0	 3	     1.0600	     0.9400;
	211	 1	 108.43	 7.00	 0.0	 0.0	 1	     1.0017	   -23.3100	 115.0	 3	     1.0600	     0.9400;
	212	 1	 0.00	 0.00	 0.0	 0.0	 1	     1.0132	   -22.5100	 138.0	 3	     1.0600	     0.9400;
	213	 2	 0.00	 0.00	 0.0	 0.0	 1	     1.0100	   -11.6700	 16.5	 3	     1.0600	     0.9400;
	214	 1	 24.85	 16.00	 0.0	 0.0	 1	     0.9919	   -17.5300	 138.0	 3	     1.0600	     0.9400;
	215	 1	 53.08	 26.00	 0.0	 0.0	 1	     0.9866	   -20.2300	 138.0	 3	     1.0600	     0.9400;
	216	 1	 198.78	 105.00	 0.0	 0.0	 1	     0.9751	   -22.5300	 138.0	 3	     1.0600	     0.9400;
	217	 1	 112.94	 75.00	 0.0	 0.0	 1	     1.0215	   -22.2000	 138.0	 3	     1.0600	     0.9400;
	218	 1	 147.96	 96.00	 0.0	 0.0	 1	     1.0075	   -22.6300	 138.0	 3	     1.0600	     0.9400;
	219	 1	 0.00	 0.00	 0.0	 0.0	 1	     1.0554	   -21.1500	 345.0	 3	     1.0600	     0.9400;
	220	 2	 321.89	 100.00	 0.0	 0.0	 1	     1.0080	   -21.7300	 138.0	 3	     1.0600	     0.9400;
	221	 2	 193.14	 70.00	 0.0	 0.0	 1	     1.0000	   -22.4900	 138.0	 3	     1.0600	     0.9400;
...
];

%% generator data
%	bus	Pg	Qg	Qmax	Qmin	Vg	mBase	status	Pmax	Pmin	Pc1	Pc2	Qc1min	Qc1max	Qc2min	Qc2max	ramp_agc	ramp_10	ramp_30	ramp_q	apf
mpc.gen = [
	8	 0.0	 244.0	 292.8	 -292.8	 1.0153	 100.0	 1	 0	 0.0	 0.0	 0.0	 0.0	 0.0	 0.0	 0.0	 0.0	 0.0	 0.0	 0.0	 0.0; % SYNC
	10	 0.0	 3.0	 20.0	 -20.0	 1.0205	 100.0	 1	 0	 0.0	 0.0	 0.0	 0.0	 0.0	 0.0	 0.0	 0.0	 0.0	 0.0	 0.0	 0.0; % SYNC
	20	 0.0	 269.0	 322.8	 -322.8	 1.001	 100.0	 1	 0	 0.0	 0.0	 0.0	 0.0	 0.0	 0.0	 0.0	 0.0	 0.0	 0.0	 0.0	 0.0; % SYNC
	63	 0.0	 65.0	 78.0	 -78.0	 0.9583	 100.0	 1	 0	 0.0	 0.0	 0.0	 0.0	 0.0	 0.0	 0.0	 0.0	 0.0	 0.0	 0.0	 0.0; % SYNC
	76	 0.0	 194.0	 232.8	 -232.8	 0.9632	 100.0	 1	 0	 0.0	 0.0	 0.0	 0.0	 0.0	 0.0	 0.0	 0.0	 0.0	 0.0	 0.0	 0.0; % SYNC
	84	 428.0	 39.0	 233.0	 -233.0	 1.025	 100.0	 1	 465	 0.0	 0.0	 0.0	 0.0	 0.0	 0.0	 0.0	 0.0	 0.0	 0.0	 0.0	 0.0; % NG
	91	 92.0	 44.0	 91.0	 -52.8	 1.052	 100.0	 1	 103	 0.0	 0.0	 0.0	 0.0	 0.0	 0.0	 0.0	 0.0	 0.0	 0.0	 0.0	 0.0; % NG
	92	 177.0	 25.0	 157.0	 -157.0	 1.052	 100.0	 1	 314	 0.0	 0.0	 0.0	 0.0	 0.0	 0.0	 0.0	 0.0	 0.0	 0.0	 0.0	 0.0; % NG
	98	 154.0	 -72.0	 111.0	 -111.0	 1.0	 100.0	 1	 221	 0.0	 0.0	 0.0	 0.0	 0.0	 0.0	 0.0	 0.0	 0.0	 0.0	 0.0	 0.0; % NG
	108	 296.0	 -3.0	 186.0	 -186.0	 0.99	 100.0	 1	 372	 0.0	 0.0	 0.0	 0.0	 0.0	 0.0	 0.0	 0.0	 0.0	 0.0	 0.0	 0.0; % NG
	119	 1427.0	 922.0	 985.0	 -1106.4	 1.0435	 100.0	 1	 1448	 0.0	 0.0	 0.0	 0.0	 0.0	 0.0	 0.0	 0.0	 0.0	 0.0	 0.0	 0.0; % COW
	124	 933.0	 95.0	 527.0	 -527.0	 1.0233	 100.0	 1	 1054	 0.0	 0.0	 0.0	 0.0	 0.0	 0.0	 0.0	 0.0	 0.0	 0.0	 0.0	 0.0; % NG
	125	 0.0	 362.0	 434.4	 -434.4	 1.0103	 100.0	 1	 0	 0.0	 0.0	 0.0	 0.0	 0.0	 0.0	 0.0	 0.0	 0.0	 0.0	 0.0	 0.0; % SYNC
	138	 0.0	 217.0	 350.0	 -260.4	 1.055	 100.0	 1	 0	 0.0	 0.0	 0.0	 0.0	 0.0	 0.0	 0.0	 0.0	 0.0	 0.0	 0.0	 0.0; % SYNC
	141	 218.0	 93.0	 240.0	 -240.0	 1.051	 100.0	 1	 480	 0.0	 0.0	 0.0	 0.0	 0.0	 0.0	 0.0	 0.0	 0.0	 0.0	 0.0	 0.0; % NG
	143	 626.0	 195.0	 315.0	 -315.0	 1.0435	 100.0	 1	 629	 0.0	 0.0	 0.0	 0.0	 0.0	 0.0	 0.0	 0.0	 0.0	 0.0	 0.0	 0.0; % COW
	146	 162.0	 141.0	 169.2	 -169.2	 1.0528	 100.0	 1	 218	 0.0	 0.0	 0.0	 0.0	 0.0	 0.0	 0.0	 0.0	 0.0	 0.0	 0.0	 0.0; % NG
	147	 111.0	 -129.0	 179.0	 -179.0	 1.0528	 100.0	 1	 357	 0.0	 0.0	 0.0	 0.0	 0.0	 0.0	 0.0	 0.0	 0.0	 0.0	 0.0	 0.0; % NG
	149	 148.0	 -8.0	 269.0	 -269.0	 1.0735	 100.0	 1	 538	 0.0	 0.0	 0.0	 0.0	 0.0	 0.0	 0.0	 0.0	 0.0	 0.0	 0.0	 0.0; % COW
	152	 297.0	 -86.0	 175.0	 -150.0	 1.0535	 100.0	 1	 300	 0.0	 0.0	 0.0	 0.0	 0.0	 0.0	 0.0	 0.0	 0.0	 0.0	 0.0	 0.0; % NG
	153	 289.0	 -32.0	 151.0	 -151.0	 1.0435	 100.0	 1	 301	 0.0	 0.0	 0.0	 0.0	 0.0	 0.0	 0.0	 0.0	 0.0	 0.0	 0.0	 0.0; % NG
	156	 0.0	 79.0	 94.8	 -94.8	 0.963	 100.0	 1	 0	 0.0	 0.0	 0.0	 0.0	 0.0	 0.0	 0.0	 0.0	 0.0	 0.0	 0.0	 0.0; % SYNC
	170	 517.0	 243.0	 291.6	 -291.6	 0.929	 100.0	 1	 577	 0.0	 0.0	 0.0	 0.0	 0.0	 0.0	 0.0	 0.0	 0.0	 0.0	 0.0	 0.0; % NG
	171	 0.0	 626.0	 751.2	 -751.2	 0.9829	 100.0	 1	 0	 0.0	 0.0	 0.0	 0.0	 0.0	 0.0	 0.0	 0.0	 0.0	 0.0	 0.0	 0.0; % SYNC
	176	 79.0	 11.0	 90.0	 -46.0	 1.0522	 100.0	 1	 92	 0.0	 0.0	 0.0	 0.0	 0.0	 0.0	 0.0	 0.0	 0.0	 0.0	 0.0	 0.0; % NG
	177	 193.0	 122.0	 146.4	 -146.4	 1.0077	 100.0	 1	 269	 0.0	 0.0	 0.0	 0.0	 0.0	 0.0	 0.0	 0.0	 0.0	 0.0	 0.0	 0.0; % NG
	185	 536.0	 71.0	 303.0	 -303.0	 1.0522	 100.0	 1	 605	 0.0	 0.0	 0.0	 0.0	 0.0	 0.0	 0.0	 0.0	 0.0	 0.0	 0.0	 0.0; % NG
	186	 1714.0	 146.0	 968.0	 -968.0	 1.065	 100.0	 1	 1936	 0.0	 0.0	 0.0	 0.0	 0.0	 0.0	 0.0	 0.0	 0.0	 0.0	 0.0	 0.0; % NG
	187	 2310.0	 175.0	 1253.0	 -1253.0	 1.065	 100.0	 1	 2505	 0.0	 0.0	 0.0	 0.0	 0.0	 0.0	 0.0	 0.0	 0.0	 0.0	 0.0	 0.0; % COW
	190	 9.0	 -76.0	 276.0	 -276.0	 1.0551	 100.0	 1	 18	 0.0	 0.0	 0.0	 0.0	 0.0	 0.0	 0.0	 0.0	 0.0	 0.0	 0.0	 0.0; % COW
	191	 1508.0	 444.0	 1000.0	 -1000.0	 1.0435	 100.0	 1	 1764	 0.0	 0.0	 0.0	 0.0	 0.0	 0.0	 0.0	 0.0	 0.0	 0.0	 0.0	 0.0; % COW
	198	 256.0	 173.0	 229.0	 -229.0	 1.015	 100.0	 1	 308	 0.0	 0.0	 0.0	 0.0	 0.0	 0.0	 0.0	 0.0	 0.0	 0.0	 0.0	 0.0; % NG
	213	 154.0	 -38.0	 294.0	 -294.0	 1.01	 100.0	 1	 587	 0.0	 0.0	 0.0	 0.0	 0.0	 0.0	 0.0	 0.0	 0.0	 0.0	 0.0	 0.0; % NG
	220	 408.0	 -954.0	 1144.8	 -1144.8	 1.008	 100.0	 1	 1129	 0.0	 0.0	 0.0	 0.0	 0.0	 0.0	 0.0	 0.0	 0.0	 0.0	 0.0	 0.0; % COW
	221	 533.0	 561.0	 1029.0	 -1029.0	 1.0	 100.0	 1	 2058	 0.0	 0.0	 0.0	 0.0	 0.0	 0.0	 0.0	 0.0	 0.0	 0.0	 0.0	 0.0; % COW
	222	 265.0	 84.0	 162.0	 -162.0	 1.05	 100.0	 1	 323	 0.0	 0.0	 0.0	 0.0	 0.0	 0.0	 0.0	 0.0	 0.0	 0.0	 0.0	 0.0; % NG
	227	 950.0	 377.0	 733.0	 -733.0	 1.0	 100.0	 1	 1466	 0.0	 0.0	 0.0	 0.0	 0.0	 0.0	 0.0	 0.0	 0.0	 0.0	 0.0	 0.0; % COW
	230	 270.0	 41.0	 420.0	 -420.0	 1.04	 100.0	 1	 840	 0.0	 0.0	 0.0	 0.0	 0.0	 0.0	 0.0	 0.0	 0.0	 0.0	 0.0	 0.0; % COW
	233	 826.0	 244.0	 640.0	 -640.0	 1.0	 100.0	 1	 1279	 0.0	 0.0	 0.0	 0.0	 0.0	 0.0	 0.0	 0.0	 0.0	 0.0	 0.0	 0.0; % NUC
	236	 1212.0	 519.0	 836.0	 -836.0	 1.0165	 100.0	 1	 1672	 0.0	 0.0	 0.0	 0.0	 0.0	 0.0	 0.0	 0.0	 0.0	 0.0	 0.0	 0.0; % COW
	238	 1498.0	 1368.0	 1641.6	 -1641.6	 1.01	 100.0	 1	 1721	 0.0	 0.0	 0.0	 0.0	 0.0	 0.0	 0.0	 0.0	 0.0	 0.0	 0.0	 0.0; % COW
	239	 617.0	 -160.0	 328.0	 -328.0	 1.0	 100.0	 1	 629	 0.0	 0.0	 0.0	 0.0	 0.0	 0.0	 0.0	 0.0	 0.0	 0.0	 0.0	 0.0; % COW
	241	 176.0	 -228.0	 317.0	 -317.0	 1.05	 100.0	 1	 633	 0.0	 0.0	 0.0	 0.0	 0.0	 0.0	 0.0	 0.0	 0.0	 0.0	 0.0	 0.0; % COW
	242	 183.0	 189.0	 344.0	 -344.0	 0.993	 100.0	 1	 688	 0.0	 0.0	 0.0	 0.0	 0.0	 0.0	 0.0	 0.0	 0.0	 0.0	 0.0	 0.0; % COW
	243	 121.0	 34.0	 81.0	 -81.0	 1.01	 100.0	 1	 162	 0.0	 0.0	 0.0	 0.0	 0.0	 0.0	 0.0	 0.0	 0.0	 0.0	 0.0	 0.0; % NG
	7001	 509.0	 49.0	 256.0	 -256.0	 1.0507	 100.0	 1	 511	 0.0	 0.0	 0.0	 0.0	 0.0	 0.0	 0.0	 0.0	 0.0	 0.0	 0.0	 0.0; % COW
	7002	 490.0	 -141.0	 280.0	 -280.0	 1.0507	 100.0	 1	 551	 0.0	 0.0	 0.0	 0.0	 0.0	 0.0	 0.0	 0.0	 0.0	 0.0	 0.0	 0.0; % COW
	7003	 725.0	 393.0	 561.0	 -561.0	 1.0323	 100.0	 1	 1122	 0.0	 0.0	 0.0	 0.0	 0.0	 0.0	 0.0	 0.0	 0.0	 0.0	 0.0	 0.0; % COW
	7011	 449.0	 9.0	 254.0	 -254.0	 1.0145	 100.0	 1	 507	 0.0	 0.0	 0.0	 0.0	 0.0	 0.0	 0.0	 0.0	 0.0	 0.0	 0.0	 0.0; % NG
	7012	 344.0	 78.0	 191.0	 -191.0	 1.0507	 100.0	 1	 350	 0.0	 0.0	 0.0	 0.0	 0.0	 0.0	 0.0	 0.0	 0.0	 0.0	 0.0	 0.0; % NG
	7017	 395.0	 291.0	 624.0	 -624.0	 1.0507	 100.0	 1	 1248	 0.0	 0.0	 0.0	 0.0	 0.0	 0.0	 0.0	 0.0	 0.0	 0.0	 0.0	 0.0; % COW
	7023	 230.0	 -52.0	 127.0	 -127.0	 1.0507	 100.0	 1	 254	 0.0	 0.0	 0.0	 0.0	 0.0	 0.0	 0.0	 0.0	 0.0	 0.0	 0.0	 0.0; % NG
	7024	 280.0	 52.0	 224.0	 -224.0	 1.029	 100.0	 1	 285	 0.0	 0.0	 0.0	 0.0	 0.0	 0.0	 0.0	 0.0	 0.0	 0.0	 0.0	 0.0; % NG
	7039	 582.0	 101.0	 640.0	 -640.0	 1.05	 100.0	 1	 1280	 0.0	 0.0	 0.0	 0.0	 0.0	 0.0	 0.0	 0.0	 0.0	 0.0	 0.0	 0.0; % COW
	7044	 72.0	 38.0	 62.0	 -62.0	 1.0145	 100.0	 1	 124	 0.0	 0.0	 0.0	 0.0	 0.0	 0.0	 0.0	 0.0	 0.0	 0.0	 0.0	 0.0; % NG
	7049	 198.0	 39.0	 101.0	 -101.0	 1.0507	 100.0	 1	 202	 0.0	 0.0	 0.0	 0.0	 0.0	 0.0	 0.0	 0.0	 0.0	 0.0	 0.0	 0.0; % COW
	7055	 62.0	 33.0	 45.0	 -45.0	 0.9967	 100.0	 1	 90	 0.0	 0.0	 0.0	 0.0	 0.0	 0.0	 0.0	 0.0	 0.0	 0.0	 0.0	 0.0; % NG
	7057	 123.0	 69.0	 84.0	 -84.0	 1.0212	 100.0	 1	 145	 0.0	 0.0	 0.0	 0.0	 0.0	 0.0	 0.0	 0.0	 0.0	 0.0	 0.0	 0.0; % PEL
	7061	 405.0	 134.0	 229.0	 -229.0	 1.0145	 100.0	 1	 457	 0.0	 0.0	 0.0	 0.0	 0.0	 0.0	 0.0	 0.0	 0.0	 0.0	 0.0	 0.0; % NG
	7062	 350.0	 89.0	 237.0	 -237.0	 1.0017	 100.0	 1	 474	 0.0	 0.0	 0.0	 0.0	 0.0	 0.0	 0.0	 0.0	 0.0	 0.0	 0.0	 0.0; % COW
	7071	 219.0	 87.0	 163.0	 -163.0	 0.9893	 100.0	 1	 326	 0.0	 0.0	 0.0	 0.0	 0.0	 0.0	 0.0	 0.0	 0.0	 0.0	 0.0	 0.0; % NG
	7130	 472.0	 -80.0	 600.0	 -369.0	 1.0507	 100.0	 1	 738	 0.0	 0.0	 0.0	 0.0	 0.0	 0.0	 0.0	 0.0	 0.0	 0.0	 0.0	 0.0; % COW
	7139	 822.0	 353.0	 462.0	 -462.0	 1.0507	 100.0	 1	 924	 0.0	 0.0	 0.0	 0.0	 0.0	 0.0	 0.0	 0.0	 0.0	 0.0	 0.0	 0.0; % COW
	7166	 359.0	 33.0	 346.0	 -346.0	 1.0145	 100.0	 1	 691	 0.0	 0.0	 0.0	 0.0	 0.0	 0.0	 0.0	 0.0	 0.0	 0.0	 0.0	 0.0; % COW
	9002	 0.0	 4.0	 4.8	 -4.8	 0.9945	 100.0	 1	 0	 0.0	 0.0	 0.0	 0.0	 0.0	 0.0	 0.0	 0.0	 0.0	 0.0	 0.0	 0.0; % SYNC
	9051	 0.0	 22.0	 26.4	 -26.4	 1.0	 100.0	 1	 0	 0.0	 0.0	 0.0	 0.0	 0.0	 0.0	 0.0	 0.0	 0.0	 0.0	 0.0	 0.0; % SYNC
	9053	 0.0	 9.0	 12.83	 -12.8	 1.0	 100.0	 1	 0	 0.0	 0.0	 0.0	 0.0	 0.0	 0.0	 0.0	 0.0	 0.0	 0.0	 0.0	 0.0; % SYNC
	9054	 133.0	 60.0	 72.0	 -72.0	 1.0	 100.0	 1	 138	 0.0	 0.0	 0.0	 0.0	 0.0	 0.0	 0.0	 0.0	 0.0	 0.0	 0.0	 0.0; % NG
	9055	 20.0	 9.0	 28.0	 -28.0	 1.0	 100.0	 1	 55	 0.0	 0.0	 0.0	 0.0	 0.0	 0.0	 0.0	 0.0	 0.0	 0.0	 0.0	 0.0; % PEL
];

%% generator cost data
%	2	startup	shutdown	n	c(n-1)	...	c0
mpc.gencost = [
	2	 0.0	 0.0	 3	   0.000000	   0.000000	   0.000000; % SYNC
	2	 0.0	 0.0	 3	   0.000000	   0.000000	   0.000000; % SYNC
	2	 0.0	 0.0	 3	   0.000000	   0.000000	   0.000000; % SYNC
	2	 0.0	 0.0	 3	   0.000000	   0.000000	   0.000000; % SYNC
	2	 0.0	 0.0	 3	   0.000000	   0.000000	   0.000000; % SYNC
	2	 0.0	 0.0	 3	   0.000000	   0.876410	   0.000000; % NG
	2	 0.0	 0.0	 3	   0.000000	   1.243453	   0.000000; % NG
	2	 0.0	 0.0	 3	   0.000000	   1.157252	   0.000000; % NG
	2	 0.0	 0.0	 3	   0.000000	   1.099199	   0.000000; % NG
	2	 0.0	 0.0	 3	   0.000000	   0.977833	   0.000000; % NG
	2	 0.0	 0.0	 3	   0.000000	   0.750786	   0.000000; % COW
	2	 0.0	 0.0	 3	   0.000000	   1.407849	   0.000000; % NG
	2	 0.0	 0.0	 3	   0.000000	   0.000000	   0.000000; % SYNC
	2	 0.0	 0.0	 3	   0.000000	   0.000000	   0.000000; % SYNC
	2	 0.0	 0.0	 3	   0.000000	   1.124304	   0.000000; % NG
	2	 0.0	 0.0	 3	   0.000000	   0.772505	   0.000000; % COW
	2	 0.0	 0.0	 3	   0.000000	   1.181724	   0.000000; % NG
	2	 0.0	 0.0	 3	   0.000000	   1.269554	   0.000000; % NG
	2	 0.0	 0.0	 3	   0.000000	   0.528068	   0.000000; % COW
	2	 0.0	 0.0	 3	   0.000000	   1.059336	   0.000000; % NG
	2	 0.0	 0.0	 3	   0.000000	   1.288217	   0.000000; % NG
	2	 0.0	 0.0	 3	   0.000000	   0.000000	   0.000000; % SYNC
	2	 0.0	 0.0	 3	   0.000000	   1.104173	   0.000000; % NG
	2	 0.0	 0.0	 3	   0.000000	   0.000000	   0.000000; % SYNC
	2	 0.0	 0.0	 3	   0.000000	   1.248265	   0.000000; % NG
	2	 0.0	 0.0	 3	   0.000000	   1.083423	   0.000000; % NG
	2	 0.0	 0.0	 3	   0.000000	   1.029104	   0.000000; % NG
	2	 0.0	 0.0	 3	   0.000000	   1.352240	   0.000000; % NG
	2	 0.0	 0.0	 3	   0.000000	   1.095937	   0.000000; % COW
	2	 0.0	 0.0	 3	   0.000000	   1.162034	   0.000000; % COW
	2	 0.0	 0.0	 3	   0.000000	   0.483053	   0.000000; % COW
	2	 0.0	 0.0	 3	   0.000000	   1.013367	   0.000000; % NG
	2	 0.0	 0.0	 3	   0.000000	   0.744585	   0.000000; % NG
	2	 0.0	 0.0	 3	   0.000000	   0.819544	   0.000000; % COW
	2	 0.0	 0.0	 3	   0.000000	   0.783711	   0.000000; % COW
	2	 0.0	 0.0	 3	   0.000000	   1.003941	   0.000000; % NG
	2	 0.0	 0.0	 3	   0.000000	   0.642731	   0.000000; % COW
	2	 0.0	 0.0	 3	   0.000000	   0.921455	   0.000000; % COW
	2	 0.0	 0.0	 3	   0.000000	   0.221612	   0.000000; % NUC
	2	 0.0	 0.0	 3	   0.000000	   0.821820	   0.000000; % COW
	2	 0.0	 0.0	 3	   0.000000	   0.958607	   0.000000; % COW
	2	 0.0	 0.0	 3	   0.000000	   1.355707	   0.000000; % COW
	2	 0.0	 0.0	 3	   0.000000	   0.812561	   0.000000; % COW
	2	 0.0	 0.0	 3	   0.000000	   0.833148	   0.000000; % COW
	2	 0.0	 0.0	 3	   0.000000	   1.003124	   0.000000; % NG
	2	 0.0	 0.0	 3	   0.000000	   0.504570	   0.000000; % COW
	2	 0.0	 0.0	 3	   0.000000	   1.077282	   0.000000; % COW
	2	 0.0	 0.0	 3	   0.000000	   0.956831	   0.000000; % COW
	2	 0.0	 0.0	 3	   0.000000	   1.035997	   0.000000; % NG
	2	 0.0	 0.0	 3	   0.000000	   1.005801	   0.000000; % NG
	2	 0.0	 0.0	 3	   0.000000	   0.824838	   0.000000; % COW
	2	 0.0	 0.0	 3	   0.000000	   1.373387	   0.000000; % NG
	2	 0.0	 0.0	 3	   0.000000	   0.898527	   0.000000; % NG
	2	 0.0	 0.0	 3	   0.000000	   0.626255	   0.000000; % COW
	2	 0.0	 0.0	 3	   0.000000	   0.918362	   0.000000; % NG
	2	 0.0	 0.0	 3	   0.000000	   1.110389	   0.000000; % COW
	2	 0.0	 0.0	 3	   0.000000	   0.913554	   0.000000; % NG
	2	 0.0	 0.0	 3	   0.000000	   6.913932	   0.000000; % PEL
	2	 0.0	 0.0	 3	   0.000000	   1.289471	   0.000000; % NG
	2	 0.0	 0.0	 3	   0.000000	   0.714242	   0.000000; % COW
	2	 0.0	 0.0	 3	   0.000000	   1.494726	   0.000000; % NG
	2	 0.0	 0.0	 3	   0.000000	   1.372495	   0.000000; % COW
	2	 0.0	 0.0	 3	   0.000000	   0.589117	   0.000000; % COW
	2	 0.0	 0.0	 3	   0.000000	   1.143560	   0.000000; % COW
	2	 0.0	 0.0	 3	   0.000000	   0.000000	   0.000000; % SYNC
	2	 0.0	 0.0	 3	   0.000000	   0.000000	   0.000000; % SYNC
	2	 0.0	 0.0	 3	   0.000000	   0.000000	   0.000000; % SYNC
	2	 0.0	 0.0	 3	   0.000000	   1.021126	   0.000000; % NG
	2	 0.0	 0.0	 3	   0.000000	   6.621014	   0.000000; % PEL
];

%% branch data
%	fbus	tbus	r	x	b	rateA	rateB	rateC	ratio	angle	status	angmin	angmax
mpc.branch = [
	37	 9001	 6e-05	 0.00046	 0.0	 9900.0	 63229.0	 75.0	 1.0082	 0.0	 1	 -30.0	 30.0;
	9001	 9005	 0.0008	 0.00348	 0.0	 8214.0	 8214.0	 8214.0	 0.0	 0.0	 1	 -30.0	 30.0;
	9001	 9006	 0.02439	 0.43682	 0.0	 67.0	 67.0	 67.0	 0.9668	 0.0	 1	 -30.0	 30.0;
	9001	 9012	 0.03624	 0.64898	 0.0	 45.0	 45.0	 45.0	 0.9796	 0.0	 1	 -30.0	 30.0;
	9005	 9051	 0.01578	 0.37486	 0.0	 78.0	 78.0	 78.0	 1.0435	 0.0	 1	 -30.0	 30.0;
	9005	 9052	 0.01578	 0.37486	 0.0	 78.0	 78.0	 78.0	 0.9391	 0.0	 1	 -30.0	 30.0;
	9005	 9053	 0.01602	 0.38046	 0.0	 77.0	 77.0	 77.0	 1.0435	 0.0	 1	 -30.0	 30.0;
	9005	 9054	 0.0	 0.152	 0.0	 192.0	 192.0	 192.0	 1.0435	 0.0	 1	 -30.0	 30.0;
	9005	 9055	 0.0	 0.8	 0.0	 36.0	 36.0	 36.0	 1.0435	 0.0	 1	 -30.0	 30.0;
	9006	 9007	 0.05558	 0.24666	 0.0	 116.0	 116.0	 116.0	 0.0	 0.0	 1	 -30.0	 30.0;
	9006	 9003	 0.11118	 0.49332	 0.0	 58.0	 58.0	 58.0	 0.0	 0.0	 1	 -30.0	 30.0;
	9006	 9003	 0.11118	 0.49332	 0.0	 58.0	 58.0	 58.0	 0.0	 0.0	 1	 -30.0	 30.0;
	9012	 9002	 0.07622	 0.43286	 0.0	 66.0	 66.0	 66.0	 0.0	 0.0	 1	 -30.0	 30.0;
	9012	 9002	 0.07622	 0.43286	 0.0	 66.0	 66.0	 66.0	 0.0	 0.0	 1	 -30.0	 30.0;
	9002	 9021	 0.0537	 0.07026	 0.0	 331.0	 331.0	 331.0	 0.0	 0.0	 1	 -30.0	 30.0;
	9021	 9023	 1.1068	 0.95278	 0.0	 20.0	 20.0	 20.0	 0.0	 0.0	 1	 -30.0	 30.0;
	9021	 9022	 0.44364	 2.8152	 0.0	 10.0	 10.0	 10.0	 1.0	 0.0	 1	 -30.0	 30.0;
	9002	 9024	 0.50748	 3.2202	 0.0	 8.0	 8.0	 8.0	 1.0	 0.0	 1	 -30.0	 30.0;
	9023	 9025	 0.66688	 3.944	 0.0	 7.0	 7.0	 7.0	 1.0	 0.0	 1	 -30.0	 30.0;
	9023	 9026	 0.6113	 3.6152	 0.0	 7.0	 7.0	 7.0	 1.0	 0.0	 1	 -30.0	 30.0;
	9007	 9071	 0.4412	 2.9668	 0.0	 9.0	 9.0	 9.0	 1.0	 0.0	 1	 -30.0	 30.0;
	9007	 9072	 0.30792	 2.057	 0.0	 14.0	 14.0	 14.0	 1.0	 0.0	 1	 -30.0	 30.0;
	9007	 9003	 0.0558	 0.24666	 0.0	 115.0	 115.0	 115.0	 0.0	 0.0	 1	 -30.0	 30.0;
	9003	 9031	 0.73633	 4.6724	 0.0	 6.0	 6.0	 6.0	 1.0	 0.0	 1	 -30.0	 30.0;
	9003	 9032	 0.76978	 4.8846	 0.0	 5.0	 5.0	 5.0	 1.0	 0.0	 1	 -30.0	 30.0;
	9003	 9033	 0.75732	 4.8056	 0.0	 6.0	 6.0	 6.0	 1.0	 0.0	 1	 -30.0	 30.0;
	9003	 9044	 0.07378	 0.06352	 0.0	 301.0	 301.0	 301.0	 0.0	 0.0	 1	 -30.0	 30.0;
	9044	 9004	 0.03832	 0.02894	 0.0	 610.0	 610.0	 610.0	 0.0	 0.0	 1	 -30.0	 30.0;
	9004	 9041	 0.36614	 2.456	 0.0	 11.0	 11.0	 11.0	 1.0	 0.0	 1	 -30.0	 30.0;
	9004	 9042	 1.0593	 5.4536	 0.0	 5.0	 5.0	 5.0	 1.0	 0.0	 1	 -30.0	 30.0;
	9004	 9043	 0.1567	 1.6994	 0.0	 17.0	 17.0	 17.0	 1.0	 0.0	 1	 -30.0	 30.0;
	9003	 9034	 0.13006	 1.3912	 0.0	 20.0	 20.0	 20.0	 1.0	 0.0	 1	 -30.0	 30.0;
	9003	 9035	 0.54484	 3.4572	 0.0	 8.0	 8.0	 8.0	 1.0	 0.0	 1	 -30.0	 30.0;
	9003	 9036	 0.15426	 1.6729	 0.0	 17.0	 17.0	 17.0	 1.0	 0.0	 1	 -30.0	 30.0;
	9003	 9037	 0.3849	 2.5712	 0.0	 11.0	 11.0	 11.0	 1.0	 0.0	 1	 -30.0	 30.0;
	9003	 9038	 0.4412	 2.9668	 0.0	 9.0	 9.0	 9.0	 1.0	 0.0	 1	 -30.0	 30.0;
	9012	 9121	 0.23552	 0.99036	 0.0	 28.0	 28.0	 28.0	 0.0	 0.0	 1	 -30.0	 30.0;
	9053	 9533	 0.0	 0.75	 0.0	 39.0	 39.0	 39.0	 0.9583	 0.0	 1	 -30.0	 30.0;
	1	 5	 0.001	 0.006	 0.0	 4822.0	 4822.0	 4822.0	 0.0	 0.0	 1	 -30.0	 30.0;
	2	 6	 0.001	 0.009	 0.0	 3239.0	 3239.0	 3239.0	 0.0	 0.0	 1	 -30.0	 30.0;
	2	 8	 0.006	 0.027	 0.054	 1060.0	 1060.0	 1060.0	 0.0	 0.0	 1	 -30.0	 30.0;
	3	 7	 0.0	 0.003	 0.0	 9777.0	 9777.0	 9777.0	 0.0	 0.0	 1	 -30.0	 30.0;
	3	 19	 0.008	 0.069	 0.139	 422.0	 422.0	 422.0	 0.0	 0.0	 1	 -30.0	 30.0;
	3	 150	 0.001	 0.007	 0.0	 4148.0	 4148.0	 4148.0	 0.0	 0.0	 1	 -30.0	 30.0;
	4	 16	 0.002	 0.019	 1.127	 1535.0	 1535.0	 1535.0	 0.0	 0.0	 1	 -30.0	 30.0;
	5	 9	 0.006	 0.029	 0.018	 990.0	 990.0	 990.0	 0.0	 0.0	 1	 -30.0	 30.0;
	7	 12	 0.001	 0.009	 0.07	 3239.0	 3239.0	 3239.0	 0.0	 0.0	 1	 -30.0	 30.0;
	7	 131	 0.001	 0.007	 0.014	 4148.0	 4148.0	 4148.0	 0.0	 0.0	 1	 -30.0	 30.0;
	8	 11	 0.013	 0.0595	 0.033	 481.0	 481.0	 481.0	 0.0	 0.0	 1	 -30.0	 30.0;
	8	 14	 0.013	 0.042	 0.081	 667.0	 667.0	 667.0	 0.0	 0.0	 1	 -30.0	 30.0;
	9	 11	 0.006	 0.027	 0.013	 1060.0	 1060.0	 1060.0	 0.0	 0.0	 1	 -30.0	 30.0;
	11	 13	 0.008	 0.034	 0.018	 839.0	 839.0	 839.0	 0.0	 0.0	 1	 -30.0	 30.0;
	12	 21	 0.002	 0.015	 0.118	 1938.0	 1938.0	 1938.0	 0.0	 0.0	 1	 -30.0	 30.0;
	13	 20	 0.006	 0.034	 0.016	 849.0	 849.0	 849.0	 0.0	 0.0	 1	 -30.0	 30.0;
	14	 15	 0.014	 0.042	 0.097	 662.0	 662.0	 662.0	 0.0	 0.0	 1	 -30.0	 30.0;
	15	 37	 0.065	 0.248	 0.121	 114.0	 114.0	 114.0	 0.0	 0.0	 1	 -30.0	 30.0;
	15	 89	 0.099	 0.248	 0.035	 109.0	 109.0	 109.0	 0.0	 0.0	 1	 -30.0	 30.0;
	15	 90	 0.096	 0.363	 0.048	 78.0	 78.0	 78.0	 0.0	 0.0	 1	 -30.0	 30.0;
	16	 42	 0.002	 0.022	 1.28	 1327.0	 1327.0	 1327.0	 0.0	 0.0	 1	 -30.0	 30.0;
	19	 21	 0.002	 0.018	 0.036	 1619.0	 1619.0	 1619.0	 0.0	 0.0	 1	 -30.0	 30.0;
	19	 87	 0.013	 0.08	 0.151	 361.0	 361.0	 361.0	 0.0	 0.0	 1	 -30.0	 30.0;
	20	 22	 0.016	 0.033	 0.015	 799.0	 799.0	 799.0	 0.0	 0.0	 1	 -30.0	 30.0;
	20	 27	 0.069	 0.186	 0.098	 147.0	 147.0	 147.0	 0.0	 0.0	 1	 -30.0	 30.0;
	21	 24	 0.004	 0.034	 0.28	 856.0	 856.0	 856.0	 0.0	 0.0	 1	 -30.0	 30.0;
	22	 23	 0.052	 0.111	 0.05	 239.0	 239.0	 239.0	 0.0	 0.0	 1	 -30.0	 30.0;
	23	 25	 0.019	 0.039	 0.018	 676.0	 676.0	 676.0	 0.0	 0.0	 1	 -30.0	 30.0;
	24	 319	 0.007	 0.068	 0.134	 429.0	 429.0	 429.0	 0.0	 0.0	 1	 -30.0	 30.0;
	25	 26	 0.036	 0.071	 0.034	 368.0	 368.0	 368.0	 0.0	 0.0	 1	 -30.0	 30.0;
	26	 27	 0.045	 0.12	 0.065	 228.0	 228.0	 228.0	 0.0	 0.0	 1	 -30.0	 30.0;
	26	 320	 0.043	 0.13	 0.014	 214.0	 214.0	 214.0	 0.0	 0.0	 1	 -30.0	 30.0;
	33	 34	 0.0	 0.063	 0.0	 465.0	 465.0	 465.0	 0.0	 0.0	 1	 -30.0	 30.0;
	33	 38	 0.0025	 0.012	 0.013	 2392.0	 2392.0	 2392.0	 0.0	 0.0	 1	 -30.0	 30.0;
	33	 40	 0.006	 0.029	 0.02	 990.0	 990.0	 990.0	 0.0	 0.0	 1	 -30.0	 30.0;
	33	 41	 0.007	 0.043	 0.026	 673.0	 673.0	 673.0	 0.0	 0.0	 1	 -30.0	 30.0;
	34	 42	 0.001	 0.008	 0.042	 3638.0	 3638.0	 3638.0	 0.0	 0.0	 1	 -30.0	 30.0;
	35	 72	 0.012	 0.06	 0.008	 479.0	 479.0	 479.0	 0.0	 0.0	 1	 -30.0	 30.0;
	35	 76	 0.006	 0.014	 0.002	 1925.0	 1925.0	 1925.0	 0.0	 0.0	 1	 -30.0	 30.0;
	35	 77	 0.01	 0.029	 0.003	 956.0	 956.0	 956.0	 0.0	 0.0	 1	 -30.0	 30.0;
	36	 88	 0.004	 0.027	 0.043	 1074.0	 1074.0	 1074.0	 0.0	 0.0	 1	 -30.0	 30.0;
	37	 38	 0.008	 0.047	 0.008	 615.0	 615.0	 615.0	 0.0	 0.0	 1	 -30.0	 30.0;
	37	 40	 0.022	 0.064	 0.007	 433.0	 433.0	 433.0	 0.0	 0.0	 1	 -30.0	 30.0;
	37	 41	 0.01	 0.036	 0.02	 785.0	 785.0	 785.0	 0.0	 0.0	 1	 -30.0	 30.0;
	37	 49	 0.017	 0.081	 0.048	 354.0	 354.0	 354.0	 0.0	 0.0	 1	 -30.0	 30.0;
	37	 89	 0.102	 0.254	 0.033	 107.0	 107.0	 107.0	 0.0	 0.0	 1	 -30.0	 30.0;
	37	 90	 0.047	 0.127	 0.016	 216.0	 216.0	 216.0	 0.0	 0.0	 1	 -30.0	 30.0;
	38	 41	 0.008	 0.037	 0.02	 774.0	 774.0	 774.0	 0.0	 0.0	 1	 -30.0	 30.0;
	38	 43	 0.032	 0.087	 0.04	 316.0	 316.0	 316.0	 0.0	 0.0	 1	 -30.0	 30.0;
	39	 42	 0.0006	 0.0064	 0.404	 4563.0	 4563.0	 4563.0	 0.0	 0.0	 1	 -30.0	 30.0;
	40	 48	 0.026	 0.154	 0.022	 187.0	 187.0	 187.0	 0.0	 0.0	 1	 -30.0	 30.0;
	41	 42	 0.0	 0.029	 0.0	 1011.0	 1011.0	 1011.0	 0.0	 0.0	 1	 -30.0	 30.0;
	41	 49	 0.065	 0.191	 0.02	 145.0	 145.0	 145.0	 0.0	 0.0	 1	 -30.0	 30.0;
	41	 51	 0.031	 0.089	 0.036	 311.0	 311.0	 311.0	 0.0	 0.0	 1	 -30.0	 30.0;
	42	 46	 0.002	 0.014	 0.806	 2074.0	 2074.0	 2074.0	 0.0	 0.0	 1	 -30.0	 30.0;
	43	 44	 0.026	 0.072	 0.035	 383.0	 383.0	 383.0	 0.0	 0.0	 1	 -30.0	 30.0;
	43	 48	 0.095	 0.262	 0.032	 105.0	 105.0	 105.0	 0.0	 0.0	 1	 -30.0	 30.0;
	43	 53	 0.013	 0.039	 0.016	 713.0	 713.0	 713.0	 0.0	 0.0	 1	 -30.0	 30.0;
	44	 47	 0.027	 0.084	 0.039	 332.0	 332.0	 332.0	 0.0	 0.0	 1	 -30.0	 30.0;
	44	 54	 0.028	 0.084	 0.037	 331.0	 331.0	 331.0	 0.0	 0.0	 1	 -30.0	 30.0;
	45	 60	 0.007	 0.041	 0.312	 705.0	 705.0	 705.0	 0.0	 0.0	 1	 -30.0	 30.0;
	45	 74	 0.009	 0.054	 0.411	 535.0	 535.0	 535.0	 0.0	 0.0	 1	 -30.0	 30.0;
	46	 81	 0.005	 0.042	 0.69	 693.0	 693.0	 693.0	 0.0	 0.0	 1	 -30.0	 30.0;
	47	 73	 0.052	 0.145	 0.073	 190.0	 190.0	 190.0	 0.0	 0.0	 1	 -30.0	 30.0;
	47	 113	 0.043	 0.118	 0.013	 233.0	 233.0	 233.0	 0.0	 0.0	 1	 -30.0	 30.0;
	48	 107	 0.025	 0.062	 0.007	 438.0	 438.0	 438.0	 0.0	 0.0	 1	 -30.0	 30.0;
	49	 51	 0.031	 0.094	 0.043	 296.0	 296.0	 296.0	 0.0	 0.0	 1	 -30.0	 30.0;
	51	 52	 0.037	 0.109	 0.049	 254.0	 254.0	 254.0	 0.0	 0.0	 1	 -30.0	 30.0;
	52	 55	 0.027	 0.08	 0.036	 347.0	 347.0	 347.0	 0.0	 0.0	 1	 -30.0	 30.0;
	53	 54	 0.025	 0.073	 0.035	 380.0	 380.0	 380.0	 0.0	 0.0	 1	 -30.0	 30.0;
	54	 55	 0.035	 0.103	 0.047	 269.0	 269.0	 269.0	 0.0	 0.0	 1	 -30.0	 30.0;
	55	 57	 0.065	 0.169	 0.082	 161.0	 161.0	 161.0	 0.0	 0.0	 1	 -30.0	 30.0;
	57	 58	 0.046	 0.08	 0.036	 317.0	 317.0	 317.0	 0.0	 0.0	 1	 -30.0	 30.0;
	57	 63	 0.159	 0.537	 0.071	 52.0	 52.0	 52.0	 0.0	 0.0	 1	 -30.0	 30.0;
	58	 59	 0.009	 0.026	 0.005	 1066.0	 1066.0	 1066.0	 0.0	 0.0	 1	 -30.0	 30.0;
	59	 61	 0.002	 0.013	 0.015	 2230.0	 2230.0	 2230.0	 0.0	 0.0	 1	 -30.0	 30.0;
	60	 62	 0.009	 0.065	 0.485	 446.0	 446.0	 446.0	 0.0	 0.0	 1	 -30.0	 30.0;
	62	 64	 0.016	 0.105	 0.203	 276.0	 276.0	 276.0	 0.0	 0.0	 1	 -30.0	 30.0;
	62	 144	 0.001	 0.007	 0.013	 4148.0	 4148.0	 4148.0	 0.0	 0.0	 1	 -30.0	 30.0;
	63	 526	 0.0265	 0.172	 0.026	 168.0	 168.0	 168.0	 0.0	 0.0	 1	 -30.0	 30.0;
	69	 211	 0.051	 0.232	 0.028	 123.0	 123.0	 123.0	 0.0	 0.0	 1	 -30.0	 30.0;
	69	 79	 0.051	 0.157	 0.023	 177.0	 177.0	 177.0	 0.0	 0.0	 1	 -30.0	 30.0;
	70	 71	 0.032	 0.1	 0.062	 279.0	 279.0	 279.0	 0.0	 0.0	 1	 -30.0	 30.0;
	70	 528	 0.02	 0.1234	 0.028	 234.0	 234.0	 234.0	 0.0	 0.0	 1	 -30.0	 30.0;
	71	 72	 0.036	 0.131	 0.068	 215.0	 215.0	 215.0	 0.0	 0.0	 1	 -30.0	 30.0;
	71	 73	 0.034	 0.099	 0.047	 280.0	 280.0	 280.0	 0.0	 0.0	 1	 -30.0	 30.0;
	72	 77	 0.018	 0.087	 0.011	 330.0	 330.0	 330.0	 0.0	 0.0	 1	 -30.0	 30.0;
	72	 531	 0.0256	 0.193	 0.0	 150.0	 150.0	 150.0	 0.0	 0.0	 1	 -30.0	 30.0;
	73	 76	 0.021	 0.057	 0.03	 482.0	 482.0	 482.0	 0.0	 0.0	 1	 -30.0	 30.0;
	73	 79	 0.018	 0.052	 0.018	 533.0	 533.0	 533.0	 0.0	 0.0	 1	 -30.0	 30.0;
	74	 88	 0.004	 0.027	 0.05	 1074.0	 1074.0	 1074.0	 0.0	 0.0	 1	 -30.0	 30.0;
	74	 562	 0.0286	 0.2013	 0.379	 144.0	 144.0	 144.0	 0.0	 0.0	 1	 -30.0	 30.0;
	76	 77	 0.016	 0.043	 0.004	 639.0	 639.0	 639.0	 0.0	 0.0	 1	 -30.0	 30.0;
	77	 78	 0.001	 0.006	 0.007	 4822.0	 4822.0	 4822.0	 0.0	 0.0	 1	 -30.0	 30.0;
	77	 80	 0.014	 0.07	 0.038	 410.0	 410.0	 410.0	 0.0	 0.0	 1	 -30.0	 30.0;
	77	 552	 0.0891	 0.2676	 0.029	 103.0	 103.0	 103.0	 0.0	 0.0	 1	 -30.0	 30.0;
	77	 609	 0.0782	 0.2127	 0.022	 129.0	 129.0	 129.0	 0.0	 0.0	 1	 -30.0	 30.0;
	78	 79	 0.006	 0.022	 0.011	 1286.0	 1286.0	 1286.0	 0.0	 0.0	 1	 -30.0	 30.0;
	78	 84	 0.0	 0.036	 0.0	 814.0	 814.0	 814.0	 0.0	 0.0	 1	 -30.0	 30.0;
	79	 211	 0.099	 0.375	 0.051	 75.0	 75.0	 75.0	 0.0	 0.0	 1	 -30.0	 30.0;
	80	 211	 0.022	 0.107	 0.058	 268.0	 268.0	 268.0	 0.0	 0.0	 1	 -30.0	 30.0;
	81	 194	 0.0035	 0.033	 0.53	 883.0	 883.0	 883.0	 0.0	 0.0	 1	 -30.0	 30.0;
	81	 195	 0.0035	 0.033	 0.53	 883.0	 883.0	 883.0	 0.0	 0.0	 1	 -30.0	 30.0;
	85	 86	 0.008	 0.064	 0.128	 454.0	 454.0	 454.0	 0.0	 0.0	 1	 -30.0	 30.0;
	86	 87	 0.012	 0.093	 0.183	 312.0	 312.0	 312.0	 0.0	 0.0	 1	 -30.0	 30.0;
	86	 323	 0.006	 0.048	 0.092	 606.0	 606.0	 606.0	 0.0	 0.0	 1	 -30.0	 30.0;
	89	 91	 0.047	 0.119	 0.014	 229.0	 229.0	 229.0	 0.0	 0.0	 1	 -30.0	 30.0;
	90	 92	 0.032	 0.174	 0.024	 165.0	 165.0	 165.0	 0.0	 0.0	 1	 -30.0	 30.0;
	91	 94	 0.1	 0.253	 0.031	 107.0	 107.0	 107.0	 0.0	 0.0	 1	 -30.0	 30.0;
	91	 97	 0.022	 0.077	 0.039	 366.0	 366.0	 366.0	 0.0	 0.0	 1	 -30.0	 30.0;
	92	 103	 0.019	 0.144	 0.017	 201.0	 201.0	 201.0	 0.0	 0.0	 1	 -30.0	 30.0;
	92	 105	 0.017	 0.092	 0.012	 313.0	 313.0	 313.0	 0.0	 0.0	 1	 -30.0	 30.0;
	94	 97	 0.278	 0.427	 0.043	 57.0	 57.0	 57.0	 0.0	 0.0	 1	 -30.0	 30.0;
	97	 100	 0.022	 0.053	 0.007	 511.0	 511.0	 511.0	 0.0	 0.0	 1	 -30.0	 30.0;
	97	 102	 0.038	 0.092	 0.012	 294.0	 294.0	 294.0	 0.0	 0.0	 1	 -30.0	 30.0;
	97	 103	 0.048	 0.122	 0.015	 223.0	 223.0	 223.0	 0.0	 0.0	 1	 -30.0	 30.0;
	98	 100	 0.024	 0.064	 0.007	 429.0	 429.0	 429.0	 0.0	 0.0	 1	 -30.0	 30.0;
	98	 102	 0.034	 0.121	 0.015	 233.0	 233.0	 233.0	 0.0	 0.0	 1	 -30.0	 30.0;
	99	 107	 0.053	 0.135	 0.017	 202.0	 202.0	 202.0	 0.0	 0.0	 1	 -30.0	 30.0;
	99	 108	 0.002	 0.004	 0.002	 6558.0	 6558.0	 6558.0	 0.0	 0.0	 1	 -30.0	 30.0;
	99	 109	 0.045	 0.354	 0.044	 82.0	 82.0	 82.0	 0.0	 0.0	 1	 -30.0	 30.0;
	99	 110	 0.05	 0.174	 0.022	 162.0	 162.0	 162.0	 0.0	 0.0	 1	 -30.0	 30.0;
	100	 102	 0.016	 0.038	 0.004	 711.0	 711.0	 711.0	 0.0	 0.0	 1	 -30.0	 30.0;
	102	 104	 0.043	 0.064	 0.027	 380.0	 380.0	 380.0	 0.0	 0.0	 1	 -30.0	 30.0;
	103	 105	 0.019	 0.062	 0.008	 452.0	 452.0	 452.0	 0.0	 0.0	 1	 -30.0	 30.0;
	104	 108	 0.076	 0.13	 0.044	 194.0	 194.0	 194.0	 0.0	 0.0	 1	 -30.0	 30.0;
	104	 322	 0.044	 0.124	 0.015	 222.0	 222.0	 222.0	 0.0	 0.0	 1	 -30.0	 30.0;
	105	 107	 0.012	 0.088	 0.011	 330.0	 330.0	 330.0	 0.0	 0.0	 1	 -30.0	 30.0;
	105	 110	 0.157	 0.4	 0.047	 68.0	 68.0	 68.0	 0.0	 0.0	 1	 -30.0	 30.0;
	108	 324	 0.074	 0.208	 0.026	 132.0	 132.0	 132.0	 0.0	 0.0	 1	 -30.0	 30.0;
	109	 110	 0.07	 0.184	 0.021	 148.0	 148.0	 148.0	 0.0	 0.0	 1	 -30.0	 30.0;
	109	 113	 0.1	 0.274	 0.031	 100.0	 100.0	 100.0	 0.0	 0.0	 1	 -30.0	 30.0;
	109	 114	 0.109	 0.393	 0.036	 71.0	 71.0	 71.0	 0.0	 0.0	 1	 -30.0	 30.0;
	110	 112	 0.142	 0.404	 0.05	 68.0	 68.0	 68.0	 0.0	 0.0	 1	 -30.0	 30.0;
	112	 114	 0.017	 0.042	 0.006	 647.0	 647.0	 647.0	 0.0	 0.0	 1	 -30.0	 30.0;
	115	 122	 0.0036	 0.0199	 0.004	 1450.0	 1450.0	 1450.0	 0.0	 0.0	 1	 -30.0	 30.0;
	116	 120	 0.002	 0.1049	 0.001	 279.0	 279.0	 279.0	 0.0	 0.0	 1	 -30.0	 30.0;
	117	 118	 0.0001	 0.0018	 0.017	 9900.0	 16270.0	 16270.0	 0.0	 0.0	 1	 -30.0	 30.0;
	118	 119	 0.0	 0.0271	 0.0	 1082.0	 1082.0	 1082.0	 0.0	 0.0	 1	 -30.0	 30.0;
	118	 1201	 0.0	 0.6163	 0.0	 47.0	 47.0	 47.0	 0.0	 0.0	 1	 -30.0	 30.0;
	1201	 120	 0.0	 -0.3697	 0.0	 79.0	 79.0	 79.0	 0.0	 0.0	 1	 -30.0	 30.0;
	118	 121	 0.0022	 0.2915	 0.0	 100.0	 100.0	 100.0	 0.0	 0.0	 1	 -30.0	 30.0;
	119	 120	 0.0	 0.0339	 0.0	 865.0	 865.0	 865.0	 0.0	 0.0	 1	 -30.0	 30.0;
	119	 121	 0.0	 0.0582	 0.0	 503.0	 503.0	 503.0	 0.0	 0.0	 1	 -30.0	 30.0;
	122	 123	 0.0808	 0.2344	 0.029	 118.0	 118.0	 118.0	 0.0	 0.0	 1	 -30.0	 30.0;
	122	 125	 0.0965	 0.3669	 0.054	 77.0	 77.0	 77.0	 0.0	 0.0	 1	 -30.0	 30.0;
	123	 124	 0.036	 0.1076	 0.117	 258.0	 258.0	 258.0	 0.0	 0.0	 1	 -30.0	 30.0;
	123	 125	 0.0476	 0.1414	 0.149	 196.0	 196.0	 196.0	 0.0	 0.0	 1	 -30.0	 30.0;
	125	 126	 0.0006	 0.0197	 0.0	 1488.0	 1488.0	 1488.0	 0.0	 0.0	 1	 -30.0	 30.0;
	126	 127	 0.0059	 0.0405	 0.25	 716.0	 716.0	 716.0	 0.0	 0.0	 1	 -30.0	 30.0;
	126	 129	 0.0115	 0.1106	 0.185	 263.0	 263.0	 263.0	 0.0	 0.0	 1	 -30.0	 30.0;
	126	 132	 0.0198	 0.1688	 0.321	 172.0	 172.0	 172.0	 0.0	 0.0	 1	 -30.0	 30.0;
	126	 157	 0.005	 0.05	 0.33	 583.0	 583.0	 583.0	 0.0	 0.0	 1	 -30.0	 30.0;
	126	 158	 0.0077	 0.0538	 0.335	 539.0	 539.0	 539.0	 0.0	 0.0	 1	 -30.0	 30.0;
	126	 169	 0.0165	 0.1157	 0.171	 250.0	 250.0	 250.0	 0.0	 0.0	 1	 -30.0	 30.0;
	127	 128	 0.0059	 0.0577	 0.095	 505.0	 505.0	 505.0	 0.0	 0.0	 1	 -30.0	 30.0;
	127	 134	 0.0049	 0.0336	 0.208	 863.0	 863.0	 863.0	 0.0	 0.0	 1	 -30.0	 30.0;
	127	 168	 0.0059	 0.0577	 0.095	 505.0	 505.0	 505.0	 0.0	 0.0	 1	 -30.0	 30.0;
	128	 130	 0.0078	 0.0773	 0.126	 377.0	 377.0	 377.0	 0.0	 0.0	 1	 -30.0	 30.0;
	128	 133	 0.0026	 0.0193	 0.03	 1506.0	 1506.0	 1506.0	 0.0	 0.0	 1	 -30.0	 30.0;
	129	 130	 0.0076	 0.0752	 0.122	 388.0	 388.0	 388.0	 0.0	 0.0	 1	 -30.0	 30.0;
	129	 133	 0.0021	 0.0186	 0.03	 1567.0	 1567.0	 1567.0	 0.0	 0.0	 1	 -30.0	 30.0;
...
];

% INFO    : === Translation Options ===
% INFO    : Load Model:                  from file ./nesta_case300_ieee.dat.sol
% INFO    : Gen Active Capacity Model:   stat
% INFO    : Gen Reactive Capacity Model: al50ag
% INFO    : Gen Active Cost Model:       stat
% INFO    : 
% INFO    : === Load Replacement Notes ===
% INFO    : Bus 1	: Pd=90.0, Qd=49.0 -> Pd=101.65, Qd=49.00
% INFO    : Bus 2	: Pd=56.0, Qd=15.0 -> Pd=63.25, Qd=15.00
% INFO    : Bus 3	: Pd=20.0, Qd=0.0 -> Pd=20.00, Qd=0.00
% INFO    : Bus 4	: Pd=0.0, Qd=0.0 -> Pd=0.00, Qd=0.00
% INFO    : Bus 5	: Pd=353.0, Qd=130.0 -> Pd=398.70, Qd=130.00
% INFO    : Bus 6	: Pd=120.0, Qd=41.0 -> Pd=135.53, Qd=41.00
% INFO    : Bus 7	: Pd=0.0, Qd=0.0 -> Pd=0.00, Qd=0.00
% INFO    : Bus 8	: Pd=63.0, Qd=14.0 -> Pd=71.16, Qd=14.00
% INFO    : Bus 9	: Pd=96.0, Qd=43.0 -> Pd=108.43, Qd=43.00
% INFO    : Bus 10	: Pd=153.0, Qd=33.0 -> Pd=172.81, Qd=33.00
% INFO    : Bus 11	: Pd=83.0, Qd=21.0 -> Pd=93.74, Qd=21.00
% INFO    : Bus 12	: Pd=0.0, Qd=0.0 -> Pd=0.00, Qd=0.00
% INFO    : Bus 13	: Pd=58.0, Qd=10.0 -> Pd=65.51, Qd=10.00
% INFO    : Bus 14	: Pd=160.0, Qd=60.0 -> Pd=180.71, Qd=60.00
% INFO    : Bus 15	: Pd=126.7, Qd=23.0 -> Pd=143.10, Qd=23.00
% INFO    : Bus 16	: Pd=0.0, Qd=0.0 -> Pd=0.00, Qd=0.00
% INFO    : Bus 17	: Pd=561.0, Qd=220.0 -> Pd=633.62, Qd=220.00
% INFO    : Bus 19	: Pd=0.0, Qd=0.0 -> Pd=0.00, Qd=0.00
% INFO    : Bus 20	: Pd=605.0, Qd=120.0 -> Pd=683.32, Qd=120.00
% INFO    : Bus 21	: Pd=77.0, Qd=1.0 -> Pd=86.97, Qd=1.00
% INFO    : Bus 22	: Pd=81.0, Qd=23.0 -> Pd=91.49, Qd=23.00
% INFO    : Bus 23	: Pd=21.0, Qd=7.0 -> Pd=23.72, Qd=7.00
% INFO    : Bus 24	: Pd=0.0, Qd=0.0 -> Pd=0.00, Qd=0.00
% INFO    : Bus 25	: Pd=45.0, Qd=12.0 -> Pd=50.83, Qd=12.00
% INFO    : Bus 26	: Pd=28.0, Qd=9.0 -> Pd=31.62, Qd=9.00
% INFO    : Bus 27	: Pd=69.0, Qd=13.0 -> Pd=77.93, Qd=13.00
% INFO    : Bus 33	: Pd=55.0, Qd=6.0 -> Pd=62.12, Qd=6.00
% INFO    : Bus 34	: Pd=0.0, Qd=0.0 -> Pd=0.00, Qd=0.00
% INFO    : Bus 35	: Pd=0.0, Qd=0.0 -> Pd=0.00, Qd=0.00
% INFO    : Bus 36	: Pd=0.0, Qd=0.0 -> Pd=0.00, Qd=0.00
% INFO    : Bus 37	: Pd=85.0, Qd=32.0 -> Pd=96.00, Qd=32.00
% INFO    : Bus 38	: Pd=155.0, Qd=18.0 -> Pd=175.06, Qd=18.00
% INFO    : Bus 39	: Pd=0.0, Qd=0.0 -> Pd=0.00, Qd=0.00
% INFO    : Bus 40	: Pd=46.0, Qd=-21.0 -> Pd=46.00, Qd=-21.00
% INFO    : Bus 41	: Pd=86.0, Qd=0.0 -> Pd=86.00, Qd=0.00
% INFO    : Bus 42	: Pd=0.0, Qd=0.0 -> Pd=0.00, Qd=0.00
% INFO    : Bus 43	: Pd=39.0, Qd=9.0 -> Pd=44.05, Qd=9.00
% INFO    : Bus 44	: Pd=195.0, Qd=29.0 -> Pd=220.24, Qd=29.00
% INFO    : Bus 45	: Pd=0.0, Qd=0.0 -> Pd=0.00, Qd=0.00
% INFO    : Bus 46	: Pd=0.0, Qd=0.0 -> Pd=0.00, Qd=0.00
% INFO    : Bus 47	: Pd=58.0, Qd=11.8 -> Pd=65.51, Qd=11.80
% INFO    : Bus 48	: Pd=41.0, Qd=19.0 -> Pd=46.31, Qd=19.00
% INFO    : Bus 49	: Pd=92.0, Qd=26.0 -> Pd=103.91, Qd=26.00
% INFO    : Bus 51	: Pd=-5.0, Qd=5.0 -> Pd=-5.00, Qd=5.00
% INFO    : Bus 52	: Pd=61.0, Qd=28.0 -> Pd=68.90, Qd=28.00
% INFO    : Bus 53	: Pd=69.0, Qd=3.0 -> Pd=77.93, Qd=3.00
% INFO    : Bus 54	: Pd=10.0, Qd=1.0 -> Pd=11.29, Qd=1.00
% INFO    : Bus 55	: Pd=22.0, Qd=10.0 -> Pd=24.85, Qd=10.00
% INFO    : Bus 57	: Pd=98.0, Qd=20.0 -> Pd=110.69, Qd=20.00
% INFO    : Bus 58	: Pd=14.0, Qd=1.0 -> Pd=15.81, Qd=1.00
% INFO    : Bus 59	: Pd=218.0, Qd=106.0 -> Pd=246.22, Qd=106.00
% INFO    : Bus 60	: Pd=0.0, Qd=0.0 -> Pd=0.00, Qd=0.00
% INFO    : Bus 61	: Pd=227.0, Qd=110.0 -> Pd=256.38, Qd=110.00
% INFO    : Bus 62	: Pd=0.0, Qd=0.0 -> Pd=0.00, Qd=0.00
% INFO    : Bus 63	: Pd=70.0, Qd=30.0 -> Pd=79.06, Qd=30.00
% INFO    : Bus 64	: Pd=0.0, Qd=0.0 -> Pd=0.00, Qd=0.00
% INFO    : Bus 69	: Pd=0.0, Qd=0.0 -> Pd=0.00, Qd=0.00
% INFO    : Bus 70	: Pd=56.0, Qd=20.0 -> Pd=63.25, Qd=20.00
% INFO    : Bus 71	: Pd=116.0, Qd=38.0 -> Pd=131.02, Qd=38.00
% INFO    : Bus 72	: Pd=57.0, Qd=19.0 -> Pd=64.38, Qd=19.00
% INFO    : Bus 73	: Pd=224.0, Qd=71.0 -> Pd=253.00, Qd=71.00
% INFO    : Bus 74	: Pd=0.0, Qd=0.0 -> Pd=0.00, Qd=0.00
% INFO    : Bus 76	: Pd=208.0, Qd=107.0 -> Pd=234.93, Qd=107.00
% INFO    : Bus 77	: Pd=74.0, Qd=28.0 -> Pd=83.58, Qd=28.00
% INFO    : Bus 78	: Pd=0.0, Qd=0.0 -> Pd=0.00, Qd=0.00
% INFO    : Bus 79	: Pd=48.0, Qd=14.0 -> Pd=54.21, Qd=14.00
% INFO    : Bus 80	: Pd=28.0, Qd=7.0 -> Pd=31.62, Qd=7.00
% INFO    : Bus 81	: Pd=0.0, Qd=0.0 -> Pd=0.00, Qd=0.00
% INFO    : Bus 84	: Pd=37.0, Qd=13.0 -> Pd=41.79, Qd=13.00
% INFO    : Bus 85	: Pd=0.0, Qd=0.0 -> Pd=0.00, Qd=0.00
% INFO    : Bus 86	: Pd=0.0, Qd=0.0 -> Pd=0.00, Qd=0.00
% INFO    : Bus 87	: Pd=0.0, Qd=0.0 -> Pd=0.00, Qd=0.00
% INFO    : Bus 88	: Pd=0.0, Qd=0.0 -> Pd=0.00, Qd=0.00
% INFO    : Bus 89	: Pd=44.2, Qd=0.0 -> Pd=44.20, Qd=0.00
% INFO    : Bus 90	: Pd=66.0, Qd=0.0 -> Pd=66.00, Qd=0.00
% INFO    : Bus 91	: Pd=17.4, Qd=0.0 -> Pd=17.40, Qd=0.00
% INFO    : Bus 92	: Pd=15.8, Qd=0.0 -> Pd=15.80, Qd=0.00
% INFO    : Bus 94	: Pd=60.3, Qd=0.0 -> Pd=60.30, Qd=0.00
% INFO    : Bus 97	: Pd=39.9, Qd=0.0 -> Pd=39.90, Qd=0.00
% INFO    : Bus 98	: Pd=66.7, Qd=0.0 -> Pd=66.70, Qd=0.00
% INFO    : Bus 99	: Pd=83.5, Qd=0.0 -> Pd=83.50, Qd=0.00
% INFO    : Bus 100	: Pd=0.0, Qd=0.0 -> Pd=0.00, Qd=0.00
% INFO    : Bus 102	: Pd=77.8, Qd=0.0 -> Pd=77.80, Qd=0.00
% INFO    : Bus 103	: Pd=32.0, Qd=0.0 -> Pd=32.00, Qd=0.00
% INFO    : Bus 104	: Pd=8.6, Qd=0.0 -> Pd=8.60, Qd=0.00
% INFO    : Bus 105	: Pd=49.6, Qd=0.0 -> Pd=49.60, Qd=0.00
% INFO    : Bus 107	: Pd=4.6, Qd=0.0 -> Pd=4.60, Qd=0.00
% INFO    : Bus 108	: Pd=112.1, Qd=0.0 -> Pd=112.10, Qd=0.00
% INFO    : Bus 109	: Pd=30.7, Qd=0.0 -> Pd=30.70, Qd=0.00
% INFO    : Bus 110	: Pd=63.0, Qd=0.0 -> Pd=63.00, Qd=0.00
% INFO    : Bus 112	: Pd=19.6, Qd=0.0 -> Pd=19.60, Qd=0.00
% INFO    : Bus 113	: Pd=26.2, Qd=0.0 -> Pd=26.20, Qd=0.00
% INFO    : Bus 114	: Pd=18.2, Qd=0.0 -> Pd=18.20, Qd=0.00
% INFO    : Bus 115	: Pd=0.0, Qd=0.0 -> Pd=0.00, Qd=0.00
% INFO    : Bus 116	: Pd=0.0, Qd=0.0 -> Pd=0.00, Qd=0.00
% INFO    : Bus 117	: Pd=0.0, Qd=0.0 -> Pd=0.00, Qd=0.00
% INFO    : Bus 118	: Pd=14.1, Qd=650.0 -> Pd=15.93, Qd=650.00
% INFO    : Bus 119	: Pd=0.0, Qd=0.0 -> Pd=0.00, Qd=0.00
% INFO    : Bus 120	: Pd=777.0, Qd=215.0 -> Pd=877.58, Qd=215.00
% INFO    : Bus 121	: Pd=535.0, Qd=55.0 -> Pd=604.26, Qd=55.00
% INFO    : Bus 122	: Pd=229.1, Qd=11.8 -> Pd=258.76, Qd=11.80
% INFO    : Bus 123	: Pd=78.0, Qd=1.4 -> Pd=88.10, Qd=1.40
% INFO    : Bus 124	: Pd=276.4, Qd=59.3 -> Pd=312.18, Qd=59.30
% INFO    : Bus 125	: Pd=514.8, Qd=82.7 -> Pd=581.44, Qd=82.70
% INFO    : Bus 126	: Pd=57.9, Qd=5.1 -> Pd=65.40, Qd=5.10
% INFO    : Bus 127	: Pd=380.8, Qd=37.0 -> Pd=430.09, Qd=37.00
% INFO    : Bus 128	: Pd=0.0, Qd=0.0 -> Pd=0.00, Qd=0.00
% INFO    : Bus 129	: Pd=0.0, Qd=0.0 -> Pd=0.00, Qd=0.00
% INFO    : Bus 130	: Pd=0.0, Qd=0.0 -> Pd=0.00, Qd=0.00
% INFO    : Bus 131	: Pd=0.0, Qd=0.0 -> Pd=0.00, Qd=0.00
% INFO    : Bus 132	: Pd=0.0, Qd=0.0 -> Pd=0.00, Qd=0.00
% INFO    : Bus 133	: Pd=0.0, Qd=0.0 -> Pd=0.00, Qd=0.00
% INFO    : Bus 134	: Pd=0.0, Qd=0.0 -> Pd=0.00, Qd=0.00
% INFO    : Bus 135	: Pd=169.2, Qd=41.6 -> Pd=191.10, Qd=41.60
% INFO    : Bus 136	: Pd=55.2, Qd=18.2 -> Pd=62.35, Qd=18.20
% INFO    : Bus 137	: Pd=273.6, Qd=99.8 -> Pd=309.02, Qd=99.80
% INFO    : Bus 138	: Pd=1019.2, Qd=135.2 -> Pd=1151.13, Qd=135.20
% INFO    : Bus 139	: Pd=595.0, Qd=83.3 -> Pd=672.02, Qd=83.30
% INFO    : Bus 140	: Pd=387.7, Qd=114.7 -> Pd=437.89, Qd=114.70
% INFO    : Bus 141	: Pd=145.0, Qd=58.0 -> Pd=163.77, Qd=58.00
% INFO    : Bus 142	: Pd=56.5, Qd=24.5 -> Pd=63.81, Qd=24.50
% INFO    : Bus 143	: Pd=89.5, Qd=35.5 -> Pd=101.09, Qd=35.50
% INFO    : Bus 144	: Pd=0.0, Qd=0.0 -> Pd=0.00, Qd=0.00
% INFO    : Bus 145	: Pd=24.0, Qd=14.0 -> Pd=27.11, Qd=14.00
% INFO    : Bus 146	: Pd=0.0, Qd=0.0 -> Pd=0.00, Qd=0.00
% INFO    : Bus 147	: Pd=0.0, Qd=0.0 -> Pd=0.00, Qd=0.00
% INFO    : Bus 148	: Pd=63.0, Qd=25.0 -> Pd=71.16, Qd=25.00
% INFO    : Bus 149	: Pd=0.0, Qd=0.0 -> Pd=0.00, Qd=0.00
% INFO    : Bus 150	: Pd=0.0, Qd=0.0 -> Pd=0.00, Qd=0.00
% INFO    : Bus 151	: Pd=0.0, Qd=0.0 -> Pd=0.00, Qd=0.00
% INFO    : Bus 152	: Pd=17.0, Qd=9.0 -> Pd=19.20, Qd=9.00
% INFO    : Bus 153	: Pd=0.0, Qd=0.0 -> Pd=0.00, Qd=0.00
% INFO    : Bus 154	: Pd=70.0, Qd=5.0 -> Pd=79.06, Qd=5.00
% INFO    : Bus 155	: Pd=200.0, Qd=50.0 -> Pd=225.89, Qd=50.00
% INFO    : Bus 156	: Pd=75.0, Qd=50.0 -> Pd=84.71, Qd=50.00
% INFO    : Bus 157	: Pd=123.5, Qd=-24.3 -> Pd=123.50, Qd=-24.30
% INFO    : Bus 158	: Pd=0.0, Qd=0.0 -> Pd=0.00, Qd=0.00
% INFO    : Bus 159	: Pd=33.0, Qd=16.5 -> Pd=37.27, Qd=16.50
% INFO    : Bus 160	: Pd=0.0, Qd=0.0 -> Pd=0.00, Qd=0.00
% INFO    : Bus 161	: Pd=35.0, Qd=15.0 -> Pd=39.53, Qd=15.00
% INFO    : Bus 162	: Pd=85.0, Qd=24.0 -> Pd=96.00, Qd=24.00
% INFO    : Bus 163	: Pd=0.0, Qd=0.4 -> Pd=0.00, Qd=0.40
% INFO    : Bus 164	: Pd=0.0, Qd=0.0 -> Pd=0.00, Qd=0.00
% INFO    : Bus 165	: Pd=0.0, Qd=0.0 -> Pd=0.00, Qd=0.00
% INFO    : Bus 166	: Pd=0.0, Qd=0.0 -> Pd=0.00, Qd=0.00
% INFO    : Bus 167	: Pd=299.9, Qd=95.7 -> Pd=338.72, Qd=95.70
% INFO    : Bus 168	: Pd=0.0, Qd=0.0 -> Pd=0.00, Qd=0.00
% INFO    : Bus 169	: Pd=0.0, Qd=0.0 -> Pd=0.00, Qd=0.00
% INFO    : Bus 170	: Pd=481.8, Qd=205.0 -> Pd=544.17, Qd=205.00
% INFO    : Bus 171	: Pd=763.6, Qd=291.1 -> Pd=862.45, Qd=291.10
% INFO    : Bus 172	: Pd=26.5, Qd=0.0 -> Pd=26.50, Qd=0.00
% INFO    : Bus 173	: Pd=163.5, Qd=43.0 -> Pd=184.66, Qd=43.00
% INFO    : Bus 174	: Pd=0.0, Qd=0.0 -> Pd=0.00, Qd=0.00
% INFO    : Bus 175	: Pd=176.0, Qd=83.0 -> Pd=198.78, Qd=83.00
% INFO    : Bus 176	: Pd=5.0, Qd=4.0 -> Pd=5.65, Qd=4.00
% INFO    : Bus 177	: Pd=28.0, Qd=12.0 -> Pd=31.62, Qd=12.00
% INFO    : Bus 178	: Pd=427.4, Qd=173.6 -> Pd=482.73, Qd=173.60
% INFO    : Bus 179	: Pd=74.0, Qd=29.0 -> Pd=83.58, Qd=29.00
% INFO    : Bus 180	: Pd=69.5, Qd=49.3 -> Pd=78.50, Qd=49.30
% INFO    : Bus 181	: Pd=73.4, Qd=0.0 -> Pd=73.40, Qd=0.00
% INFO    : Bus 182	: Pd=240.7, Qd=89.0 -> Pd=271.86, Qd=89.00
% INFO    : Bus 183	: Pd=40.0, Qd=4.0 -> Pd=45.18, Qd=4.00
% INFO    : Bus 184	: Pd=136.8, Qd=16.6 -> Pd=154.51, Qd=16.60
% INFO    : Bus 185	: Pd=0.0, Qd=0.0 -> Pd=0.00, Qd=0.00
% INFO    : Bus 186	: Pd=59.8, Qd=24.3 -> Pd=67.54, Qd=24.30
% INFO    : Bus 187	: Pd=59.8, Qd=24.3 -> Pd=67.54, Qd=24.30
% INFO    : Bus 188	: Pd=182.6, Qd=43.6 -> Pd=206.24, Qd=43.60
% INFO    : Bus 189	: Pd=7.0, Qd=2.0 -> Pd=7.91, Qd=2.00
% INFO    : Bus 190	: Pd=0.0, Qd=0.0 -> Pd=0.00, Qd=0.00
% INFO    : Bus 191	: Pd=489.0, Qd=53.0 -> Pd=552.30, Qd=53.00
% INFO    : Bus 192	: Pd=800.0, Qd=72.0 -> Pd=903.56, Qd=72.00
% INFO    : Bus 193	: Pd=0.0, Qd=0.0 -> Pd=0.00, Qd=0.00
% INFO    : Bus 194	: Pd=0.0, Qd=0.0 -> Pd=0.00, Qd=0.00
% INFO    : Bus 195	: Pd=0.0, Qd=0.0 -> Pd=0.00, Qd=0.00
% INFO    : Bus 196	: Pd=10.0, Qd=3.0 -> Pd=11.29, Qd=3.00
% INFO    : Bus 197	: Pd=43.0, Qd=14.0 -> Pd=48.57, Qd=14.00
% INFO    : Bus 198	: Pd=64.0, Qd=21.0 -> Pd=72.28, Qd=21.00
% INFO    : Bus 199	: Pd=35.0, Qd=12.0 -> Pd=39.53, Qd=12.00
% INFO    : Bus 200	: Pd=27.0, Qd=12.0 -> Pd=30.50, Qd=12.00
% INFO    : Bus 201	: Pd=41.0, Qd=14.0 -> Pd=46.31, Qd=14.00
% INFO    : Bus 202	: Pd=38.0, Qd=13.0 -> Pd=42.92, Qd=13.00
% INFO    : Bus 203	: Pd=42.0, Qd=14.0 -> Pd=47.44, Qd=14.00
% INFO    : Bus 204	: Pd=72.0, Qd=24.0 -> Pd=81.32, Qd=24.00
% INFO    : Bus 205	: Pd=0.0, Qd=-5.0 -> Pd=0.00, Qd=-5.00
% INFO    : Bus 206	: Pd=12.0, Qd=2.0 -> Pd=13.55, Qd=2.00
% INFO    : Bus 207	: Pd=-21.0, Qd=-14.2 -> Pd=-21.00, Qd=-14.20
% INFO    : Bus 208	: Pd=7.0, Qd=2.0 -> Pd=7.91, Qd=2.00
% INFO    : Bus 209	: Pd=38.0, Qd=13.0 -> Pd=42.92, Qd=13.00
% INFO    : Bus 210	: Pd=0.0, Qd=0.0 -> Pd=0.00, Qd=0.00
% INFO    : Bus 211	: Pd=96.0, Qd=7.0 -> Pd=108.43, Qd=7.00
% INFO    : Bus 212	: Pd=0.0, Qd=0.0 -> Pd=0.00, Qd=0.00
% INFO    : Bus 213	: Pd=0.0, Qd=0.0 -> Pd=0.00, Qd=0.00
% INFO    : Bus 214	: Pd=22.0, Qd=16.0 -> Pd=24.85, Qd=16.00
% INFO    : Bus 215	: Pd=47.0, Qd=26.0 -> Pd=53.08, Qd=26.00
% INFO    : Bus 216	: Pd=176.0, Qd=105.0 -> Pd=198.78, Qd=105.00
% INFO    : Bus 217	: Pd=100.0, Qd=75.0 -> Pd=112.94, Qd=75.00
% INFO    : Bus 218	: Pd=131.0, Qd=96.0 -> Pd=147.96, Qd=96.00
% INFO    : Bus 219	: Pd=0.0, Qd=0.0 -> Pd=0.00, Qd=0.00
% INFO    : Bus 220	: Pd=285.0, Qd=100.0 -> Pd=321.89, Qd=100.00
% INFO    : Bus 221	: Pd=171.0, Qd=70.0 -> Pd=193.14, Qd=70.00
...